* sclib_tigfet10_hpall_tt_0p70v_25c.sp
.subckt TIGFET_HPNW1 D PGD CG PGS S
xgate (D PGD CG PGS S) TIGFET nw=1
.ends
.subckt TIGFET_HPNW4 D PGD CG PGS S
xgate (D PGD CG PGS S) TIGFET nw=4
.ends
.subckt TIGFET_HPNW8 D PGD CG PGS S
xgate (D PGD CG PGS S) TIGFET nw=8
.ends
.subckt TIGFET_HPNW12 D PGD CG PGS S
xgate (D PGD CG PGS S) TIGFET nw=12
.ends
*
* File: G3_AND2_N1.pex.netlist
* Created: Wed Feb 23 10:37:48 2022
* Program "Calibre xRC"
* Version "v2021.2_37.20"
*
.subckt PM_G3_AND2_N1_VSS 2 4 6 8 10 12 14 16 30 31 33 50 53 70 75 80 85 94 99
+ 108 109 113 114 119 125 127 132 133 134 136 Vss
c68 134 Vss 3.75522e-19
c69 133 Vss 3.62111e-19
c70 132 Vss 0.00361417f
c71 127 Vss 0.00255728f
c72 125 Vss 0.00548072f
c73 119 Vss 0.00398592f
c74 114 Vss 9.65205e-19
c75 113 Vss 0.00179171f
c76 109 Vss 8.2274e-19
c77 108 Vss 0.00426189f
c78 99 Vss 0.00393602f
c79 94 Vss 0.004332f
c80 85 Vss 7.10513e-22
c81 80 Vss 6.65776e-19
c82 75 Vss 3.89225e-19
c83 70 Vss 0.00133027f
c84 58 Vss 0.0299355f
c85 57 Vss 0.0299355f
c86 53 Vss 7.50699e-20
c87 51 Vss 0.0346861f
c88 50 Vss 0.0984533f
c89 42 Vss 0.105926f
c90 37 Vss 0.0688517f
c91 33 Vss 6.52493e-20
c92 31 Vss 0.0342473f
c93 30 Vss 0.064644f
c94 16 Vss 0.00266844f
c95 14 Vss 0.0828881f
c96 12 Vss 0.0825199f
c97 10 Vss 0.0830027f
c98 8 Vss 0.0831275f
c99 6 Vss 0.0832632f
c100 4 Vss 0.0828837f
c101 2 Vss 0.00266829f
r102 132 136 0.326018
r103 131 132 4.16786
r104 127 131 0.655813
r105 126 134 0.494161
r106 125 136 0.326018
r107 125 126 10.1279
r108 121 134 0.128424
r109 120 133 0.494161
r110 119 134 0.494161
r111 119 120 10.378
r112 115 133 0.128424
r113 113 133 0.494161
r114 113 114 4.37625
r115 108 114 0.668428
r116 107 109 0.6565
r117 107 108 10.093
r118 85 127 1.82344
r119 80 99 1.16709
r120 80 121 2.16729
r121 75 94 1.16709
r122 75 115 2.16729
r123 70 109 1.85991
r124 53 99 0.238214
r125 51 53 1.45875
r126 50 54 0.652036
r127 50 53 1.45875
r128 47 51 0.652036
r129 43 58 0.494161
r130 42 44 0.652036
r131 42 43 2.9175
r132 39 58 0.128424
r133 38 57 0.494161
r134 37 58 0.494161
r135 37 38 2.8008
r136 34 57 0.128424
r137 33 94 0.238214
r138 31 33 1.4004
r139 30 57 0.494161
r140 30 33 1.5171
r141 27 31 0.652036
r142 16 85 1.16709
r143 14 47 2.5674
r144 12 54 2.5674
r145 10 44 2.5674
r146 8 39 2.5674
r147 6 27 2.5674
r148 4 34 2.5674
r149 2 70 1.16709
.ends

.subckt PM_G3_AND2_N1_VDD 2 4 6 10 12 25 27 33 51 53 54 58 60 64 68 70 74 76 78
+ 79 85 94 Vss
c87 94 Vss 0.00555165f
c88 85 Vss 0.00507125f
c89 79 Vss 4.42156e-19
c90 76 Vss 5.947e-19
c91 74 Vss 0.00125165f
c92 70 Vss 0.00410186f
c93 68 Vss 0.0014864f
c94 64 Vss 0.0023623f
c95 60 Vss 0.00679469f
c96 58 Vss 0.0016182f
c97 55 Vss 0.00207011f
c98 54 Vss 0.0101277f
c99 53 Vss 0.0036687f
c100 51 Vss 0.00587536f
c101 33 Vss 0.0347789f
c102 32 Vss 0.101192f
c103 27 Vss 0.183894f
c104 25 Vss 0.0364084f
c105 12 Vss 0.0842982f
c106 10 Vss 0.0825186f
c107 6 Vss 0.00153036f
c108 4 Vss 0.00221866f
c109 2 Vss 0.0976708f
r110 74 94 1.16709
r111 72 74 2.16729
r112 71 79 0.494161
r113 70 72 0.652036
r114 70 71 7.46046
r115 66 79 0.128424
r116 66 68 4.83471
r117 64 85 1.16709
r118 62 64 3.66771
r119 61 78 0.386734
r120 60 79 0.494161
r121 60 61 13.0037
r122 56 76 0.18826
r123 56 58 1.82344
r124 54 62 0.652036
r125 54 55 10.0862
r126 53 78 0.284962
r127 52 76 0.427332
r128 52 53 3.07105
r129 51 76 0.427332
r130 50 55 0.671696
r131 50 51 7.86189
r132 35 94 0.238214
r133 33 35 1.45875
r134 32 36 0.652036
r135 32 35 1.45875
r136 29 33 0.652036
r137 27 85 0.50025
r138 25 27 5.11257
r139 22 25 0.652541
r140 12 36 2.5674
r141 10 29 2.5674
r142 6 68 1.16709
r143 4 58 1.16709
r144 2 22 3.2676
.ends

.subckt PM_G3_AND2_N1_A 2 4 10 13 18 21 26 31 Vss
c25 31 Vss 0.00351715f
c26 26 Vss 0.00299969f
c27 18 Vss 8.55683e-19
c28 13 Vss 0.0576606f
c29 2 Vss 0.0575116f
r30 23 31 1.16709
r31 21 23 2.12561
r32 18 26 1.16709
r33 18 21 2.70911
r34 13 31 0.50025
r35 10 26 0.50025
r36 4 13 1.80885
r37 2 10 1.80885
.ends

.subckt PM_G3_AND2_N1_NET1 2 4 8 10 21 24 27 45 53 66 70 Vss
c51 70 Vss 0.00676771f
c52 66 Vss 0.00607266f
c53 53 Vss 0.00254578f
c54 45 Vss 0.00159242f
c55 27 Vss 1.04894e-19
c56 24 Vss 0.225594f
c57 21 Vss 0.0713786f
c58 19 Vss 0.0247918f
c59 10 Vss 0.0847975f
c60 4 Vss 0.00148239f
c61 2 Vss 0.00144265f
r62 70 74 0.652036
r63 53 66 1.16709
r64 53 74 3.66771
r65 48 70 8.04396
r66 48 50 6.4185
r67 45 48 2.75079
r68 27 66 0.0476429
r69 25 27 0.326018
r70 25 27 0.1167
r71 24 28 0.652036
r72 24 27 6.7686
r73 21 66 0.357321
r74 19 27 0.326018
r75 19 21 0.40845
r76 10 28 2.5674
r77 8 21 2.15895
r78 4 50 1.16709
r79 2 45 1.16709
.ends

.subckt PM_G3_AND2_N1_B 2 4 10 11 14 18 21 Vss
c26 21 Vss 5.0923e-19
c27 14 Vss 0.148163f
c28 11 Vss 0.0348321f
c29 10 Vss 0.287297f
c30 2 Vss 0.172263f
r31 18 21 0.0364688
r32 14 21 1.16709
r33 12 14 2.8008
r34 10 12 0.652036
r35 10 11 8.92755
r36 7 11 0.652036
r37 4 14 3.0342
r38 2 7 5.835
.ends

.subckt PM_G3_AND2_N1_Z 2 16 19 Vss
c11 2 Vss 0.00148239f
r12 16 19 0.0364688
r13 2 19 1.16709
.ends

.subckt G3_AND2_N1  VSS VDD A B Z
*
* Z	Z
* B	B
* A	A
* VDD	VDD
* VSS	VSS
XI7.X0 N_NET1_XI7.X0_D N_VDD_XI7.X0_PGD N_A_XI7.X0_CG N_B_XI7.X0_PGS
+ N_VSS_XI7.X0_S TIGFET_HPNW1
XI8.X0 N_NET1_XI8.X0_D N_VSS_XI8.X0_PGD N_A_XI8.X0_CG N_VSS_XI8.X0_PGS
+ N_VDD_XI8.X0_S TIGFET_HPNW1
XI9.X0 N_NET1_XI8.X0_D N_VSS_XI9.X0_PGD N_B_XI9.X0_CG N_VSS_XI9.X0_PGS
+ N_VDD_XI9.X0_S TIGFET_HPNW1
XI2.X0 N_Z_XI2.X0_D N_VSS_XI2.X0_PGD N_NET1_XI2.X0_CG N_VSS_XI2.X0_PGS
+ N_VDD_XI9.X0_S TIGFET_HPNW1
XI1.X0 N_Z_XI2.X0_D N_VDD_XI1.X0_PGD N_NET1_XI1.X0_CG N_VDD_XI1.X0_PGS
+ N_VSS_XI1.X0_S TIGFET_HPNW1
*
x_PM_G3_AND2_N1_VSS N_VSS_XI7.X0_S N_VSS_XI8.X0_PGD N_VSS_XI8.X0_PGS
+ N_VSS_XI9.X0_PGD N_VSS_XI9.X0_PGS N_VSS_XI2.X0_PGD N_VSS_XI2.X0_PGS
+ N_VSS_XI1.X0_S N_VSS_c_13_p N_VSS_c_14_p N_VSS_c_42_p N_VSS_c_2_p N_VSS_c_49_p
+ N_VSS_c_4_p N_VSS_c_7_p N_VSS_c_23_p N_VSS_c_65_p N_VSS_c_8_p N_VSS_c_25_p
+ N_VSS_c_5_p N_VSS_c_6_p N_VSS_c_17_p N_VSS_c_10_p N_VSS_c_18_p N_VSS_c_30_p
+ N_VSS_c_68_p N_VSS_c_33_p N_VSS_c_19_p N_VSS_c_31_p VSS Vss PM_G3_AND2_N1_VSS
x_PM_G3_AND2_N1_VDD N_VDD_XI7.X0_PGD N_VDD_XI8.X0_S N_VDD_XI9.X0_S
+ N_VDD_XI1.X0_PGD N_VDD_XI1.X0_PGS N_VDD_c_143_p N_VDD_c_128_p N_VDD_c_70_n
+ N_VDD_c_71_n N_VDD_c_75_n N_VDD_c_79_n N_VDD_c_80_n N_VDD_c_81_n N_VDD_c_116_p
+ N_VDD_c_88_n N_VDD_c_94_n N_VDD_c_100_n N_VDD_c_102_n VDD N_VDD_c_103_n
+ N_VDD_c_113_p N_VDD_c_104_n Vss PM_G3_AND2_N1_VDD
x_PM_G3_AND2_N1_A N_A_XI7.X0_CG N_A_XI8.X0_CG N_A_c_164_n N_A_c_156_n
+ N_A_c_157_n A N_A_c_167_n N_A_c_160_n Vss PM_G3_AND2_N1_A
x_PM_G3_AND2_N1_NET1 N_NET1_XI7.X0_D N_NET1_XI8.X0_D N_NET1_XI2.X0_CG
+ N_NET1_XI1.X0_CG N_NET1_c_183_n N_NET1_c_184_n N_NET1_c_185_n N_NET1_c_187_n
+ N_NET1_c_190_n N_NET1_c_193_n N_NET1_c_195_n Vss PM_G3_AND2_N1_NET1
x_PM_G3_AND2_N1_B N_B_XI7.X0_PGS N_B_XI9.X0_CG N_B_c_232_n N_B_c_234_n
+ N_B_c_239_n B N_B_c_242_n Vss PM_G3_AND2_N1_B
x_PM_G3_AND2_N1_Z N_Z_XI2.X0_D Z N_Z_c_260_n Vss PM_G3_AND2_N1_Z
cc_1 N_VSS_XI2.X0_PGD N_VDD_XI1.X0_PGD 0.0016786f
cc_2 N_VSS_c_2_p N_VDD_c_70_n 0.0016786f
cc_3 N_VSS_XI7.X0_S N_VDD_c_71_n 9.73142e-19
cc_4 N_VSS_c_4_p N_VDD_c_71_n 0.0016649f
cc_5 N_VSS_c_5_p N_VDD_c_71_n 0.00583639f
cc_6 N_VSS_c_6_p N_VDD_c_71_n 0.00213268f
cc_7 N_VSS_c_7_p N_VDD_c_75_n 9.61646e-19
cc_8 N_VSS_c_8_p N_VDD_c_75_n 4.3619e-19
cc_9 N_VSS_c_5_p N_VDD_c_75_n 0.00351219f
cc_10 N_VSS_c_10_p N_VDD_c_75_n 0.00128683f
cc_11 N_VSS_c_4_p N_VDD_c_79_n 0.00221042f
cc_12 N_VSS_c_4_p N_VDD_c_80_n 7.48389e-19
cc_13 N_VSS_c_13_p N_VDD_c_81_n 0.00144388f
cc_14 N_VSS_c_14_p N_VDD_c_81_n 2.81922e-19
cc_15 N_VSS_c_7_p N_VDD_c_81_n 0.00161703f
cc_16 N_VSS_c_8_p N_VDD_c_81_n 2.03837e-19
cc_17 N_VSS_c_17_p N_VDD_c_81_n 0.00338232f
cc_18 N_VSS_c_18_p N_VDD_c_81_n 0.00635521f
cc_19 N_VSS_c_19_p N_VDD_c_81_n 7.61747e-19
cc_20 N_VSS_XI9.X0_PGS N_VDD_c_88_n 2.28184e-19
cc_21 N_VSS_XI2.X0_PGS N_VDD_c_88_n 2.56778e-19
cc_22 N_VSS_c_7_p N_VDD_c_88_n 5.65664e-19
cc_23 N_VSS_c_23_p N_VDD_c_88_n 0.00181281f
cc_24 N_VSS_c_8_p N_VDD_c_88_n 2.30125e-19
cc_25 N_VSS_c_25_p N_VDD_c_88_n 9.55109e-19
cc_26 N_VSS_c_2_p N_VDD_c_94_n 4.8598e-19
cc_27 N_VSS_c_23_p N_VDD_c_94_n 0.00161703f
cc_28 N_VSS_c_25_p N_VDD_c_94_n 2.03837e-19
cc_29 N_VSS_c_18_p N_VDD_c_94_n 0.00145178f
cc_30 N_VSS_c_30_p N_VDD_c_94_n 0.00590089f
cc_31 N_VSS_c_31_p N_VDD_c_94_n 7.74609e-19
cc_32 N_VSS_c_23_p N_VDD_c_100_n 8.94411e-19
cc_33 N_VSS_c_33_p N_VDD_c_100_n 3.85245e-19
cc_34 N_VSS_c_5_p N_VDD_c_102_n 0.00104993f
cc_35 N_VSS_c_18_p N_VDD_c_103_n 0.00119068f
cc_36 N_VSS_c_23_p N_VDD_c_104_n 3.48267e-19
cc_37 N_VSS_c_25_p N_VDD_c_104_n 8.0279e-19
cc_38 N_VSS_c_8_p N_A_c_156_n 0.00234241f
cc_39 N_VSS_c_7_p N_A_c_157_n 8.12473e-19
cc_40 N_VSS_c_8_p N_A_c_157_n 5.42695e-19
cc_41 N_VSS_c_5_p N_A_c_157_n 6.55807e-19
cc_42 N_VSS_c_42_p N_A_c_160_n 7.84334e-19
cc_43 N_VSS_c_7_p N_A_c_160_n 4.56568e-19
cc_44 N_VSS_c_8_p N_A_c_160_n 0.00184767f
cc_45 N_VSS_XI7.X0_S N_NET1_XI7.X0_D 3.43419e-19
cc_46 N_VSS_c_4_p N_NET1_XI7.X0_D 3.48267e-19
cc_47 N_VSS_c_25_p N_NET1_c_183_n 0.00413078f
cc_48 N_VSS_XI2.X0_PGD N_NET1_c_184_n 4.20799e-19
cc_49 N_VSS_c_49_p N_NET1_c_185_n 9.28737e-19
cc_50 N_VSS_c_25_p N_NET1_c_185_n 2.03369e-19
cc_51 N_VSS_XI7.X0_S N_NET1_c_187_n 3.48267e-19
cc_52 N_VSS_c_4_p N_NET1_c_187_n 8.46599e-19
cc_53 N_VSS_c_5_p N_NET1_c_187_n 2.07501e-19
cc_54 N_VSS_c_23_p N_NET1_c_190_n 0.00125323f
cc_55 N_VSS_c_25_p N_NET1_c_190_n 4.64764e-19
cc_56 N_VSS_c_5_p N_NET1_c_190_n 3.39684e-19
cc_57 N_VSS_c_23_p N_NET1_c_193_n 4.56568e-19
cc_58 N_VSS_c_25_p N_NET1_c_193_n 6.1245e-19
cc_59 N_VSS_c_5_p N_NET1_c_195_n 2.06399e-19
cc_60 N_VSS_c_18_p N_NET1_c_195_n 0.00149275f
cc_61 N_VSS_XI8.X0_PGD N_B_c_232_n 6.72196e-19
cc_62 N_VSS_XI9.X0_PGD N_B_c_232_n 6.72196e-19
cc_63 N_VSS_XI8.X0_PGS N_B_c_234_n 7.85613e-19
cc_64 N_VSS_XI1.X0_S N_Z_XI2.X0_D 3.43419e-19
cc_65 N_VSS_c_65_p N_Z_XI2.X0_D 3.48267e-19
cc_66 N_VSS_c_65_p N_Z_c_260_n 5.37696e-19
cc_67 N_VSS_c_30_p N_Z_c_260_n 2.64173e-19
cc_68 N_VSS_c_68_p N_Z_c_260_n 2.7826e-19
cc_69 N_VDD_XI7.X0_PGD N_A_XI7.X0_CG 4.88425e-19
cc_70 N_VDD_c_79_n N_A_c_164_n 3.72495e-19
cc_71 N_VDD_c_71_n N_A_c_157_n 0.00273528f
cc_72 N_VDD_c_79_n N_A_c_157_n 7.03725e-19
cc_73 N_VDD_XI7.X0_PGD N_A_c_167_n 2.88617e-19
cc_74 N_VDD_c_71_n N_A_c_167_n 3.68786e-19
cc_75 N_VDD_c_79_n N_A_c_167_n 4.3265e-19
cc_76 N_VDD_c_113_p N_A_c_167_n 7.96439e-19
cc_77 N_VDD_c_71_n N_A_c_160_n 5.09899e-19
cc_78 N_VDD_c_79_n N_NET1_XI7.X0_D 9.18655e-19
cc_79 N_VDD_c_116_p N_NET1_XI7.X0_D 8.835e-19
cc_80 N_VDD_c_113_p N_NET1_XI7.X0_D 0.00132057f
cc_81 N_VDD_XI8.X0_S N_NET1_XI8.X0_D 3.43419e-19
cc_82 N_VDD_XI9.X0_S N_NET1_XI8.X0_D 3.43419e-19
cc_83 N_VDD_c_80_n N_NET1_XI8.X0_D 3.74351e-19
cc_84 N_VDD_c_81_n N_NET1_XI8.X0_D 3.7884e-19
cc_85 N_VDD_c_88_n N_NET1_XI8.X0_D 3.48267e-19
cc_86 N_VDD_c_104_n N_NET1_XI1.X0_CG 8.03148e-19
cc_87 N_VDD_XI1.X0_PGD N_NET1_c_184_n 4.25379e-19
cc_88 N_VDD_XI7.X0_PGD N_NET1_c_187_n 2.94751e-19
cc_89 N_VDD_XI8.X0_S N_NET1_c_187_n 3.48267e-19
cc_90 N_VDD_XI9.X0_S N_NET1_c_187_n 3.48267e-19
cc_91 N_VDD_c_128_p N_NET1_c_187_n 5.10453e-19
cc_92 N_VDD_c_71_n N_NET1_c_187_n 6.49505e-19
cc_93 N_VDD_c_79_n N_NET1_c_187_n 0.00151981f
cc_94 N_VDD_c_80_n N_NET1_c_187_n 8.1398e-19
cc_95 N_VDD_c_81_n N_NET1_c_187_n 5.36364e-19
cc_96 N_VDD_c_116_p N_NET1_c_187_n 0.00366419f
cc_97 N_VDD_c_88_n N_NET1_c_187_n 7.99681e-19
cc_98 N_VDD_c_113_p N_NET1_c_187_n 8.835e-19
cc_99 N_VDD_c_79_n N_NET1_c_195_n 3.89533e-19
cc_100 N_VDD_c_81_n N_NET1_c_195_n 3.69547e-19
cc_101 N_VDD_c_116_p N_NET1_c_195_n 4.83374e-19
cc_102 N_VDD_c_88_n N_NET1_c_195_n 4.34102e-19
cc_103 N_VDD_XI7.X0_PGD N_B_XI7.X0_PGS 0.00320719f
cc_104 N_VDD_c_71_n N_B_XI7.X0_PGS 6.17633e-19
cc_105 N_VDD_c_79_n N_B_XI7.X0_PGS 2.2956e-19
cc_106 N_VDD_c_143_p N_B_c_232_n 0.00973324f
cc_107 N_VDD_c_81_n N_B_c_239_n 4.48125e-19
cc_108 N_VDD_c_116_p N_B_c_239_n 4.13122e-19
cc_109 N_VDD_c_113_p N_B_c_239_n 0.00150022f
cc_110 N_VDD_c_81_n N_B_c_242_n 2.66883e-19
cc_111 N_VDD_c_116_p N_B_c_242_n 3.55986e-19
cc_112 N_VDD_c_113_p N_B_c_242_n 3.81676e-19
cc_113 N_VDD_XI9.X0_S N_Z_XI2.X0_D 3.43419e-19
cc_114 N_VDD_c_88_n N_Z_XI2.X0_D 3.48267e-19
cc_115 N_VDD_c_94_n N_Z_XI2.X0_D 3.7884e-19
cc_116 N_VDD_XI9.X0_S N_Z_c_260_n 3.48267e-19
cc_117 N_VDD_c_88_n N_Z_c_260_n 7.06424e-19
cc_118 N_VDD_c_94_n N_Z_c_260_n 5.12447e-19
cc_119 N_A_c_157_n N_NET1_c_187_n 0.00751692f
cc_120 N_A_c_167_n N_NET1_c_187_n 9.57699e-19
cc_121 N_A_c_160_n N_NET1_c_187_n 9.18163e-19
cc_122 N_A_XI7.X0_CG N_B_XI7.X0_PGS 4.5346e-19
cc_123 N_A_c_167_n N_B_XI7.X0_PGS 5.70584e-19
cc_124 N_A_c_157_n N_B_c_232_n 2.1473e-19
cc_125 N_A_c_167_n N_B_c_232_n 0.0014179f
cc_126 N_A_c_160_n N_B_c_232_n 0.00112482f
cc_127 N_A_c_160_n N_B_c_239_n 9.27569e-19
cc_128 N_NET1_c_187_n N_B_c_232_n 7.63501e-19
cc_129 N_NET1_c_187_n N_B_c_239_n 9.91045e-19
cc_130 N_NET1_c_190_n N_B_c_239_n 3.63713e-19
cc_131 N_NET1_c_193_n N_B_c_239_n 0.00197331f
cc_132 N_NET1_c_187_n N_B_c_242_n 0.00142922f
cc_133 N_NET1_c_190_n N_B_c_242_n 3.90886e-19
cc_134 N_NET1_c_193_n N_B_c_242_n 3.48267e-19
*
.ends
*
*
.subckt AND2_HPNW1 A B Y VDD VSS
xgate (VSS VDD A B Y) G3_AND2_N1
.ends
*
* File: G2_AOI21_N1.pex.netlist
* Created: Mon Apr 11 11:24:15 2022
* Program "Calibre xRC"
* Version "v2021.2_37.20"
*
.subckt PM_G2_AOI21_N1_VSS 2 4 6 8 19 25 38 43 48 57 66 67 69 77 78 79 83 84 86
+ 88 89 Vss
c53 89 Vss 4.28045e-19
c54 86 Vss 0.00420179f
c55 84 Vss 0.00142701f
c56 83 Vss 8.42815e-19
c57 79 Vss 0.00125695f
c58 78 Vss 4.66086e-19
c59 77 Vss 0.00243143f
c60 69 Vss 0.00100335f
c61 68 Vss 0.00135524f
c62 67 Vss 0.00884313f
c63 66 Vss 0.00244299f
c64 57 Vss 0.00663377f
c65 48 Vss 1.70165e-19
c66 43 Vss 0.00203396f
c67 38 Vss 0.00129403f
c68 25 Vss 0.0827803f
c69 19 Vss 0.034042f
c70 18 Vss 0.0688517f
c71 8 Vss 0.0810091f
c72 6 Vss 0.00226958f
c73 4 Vss 0.0797379f
c74 2 Vss 0.00290534f
r75 85 89 0.551426
r76 85 86 13.3371
r77 84 89 0.551426
r78 83 88 0.326149
r79 83 84 4.12618
r80 79 89 0.0828784
r81 77 86 0.652036
r82 77 78 4.33457
r83 73 78 0.652036
r84 67 88 0.326149
r85 67 68 15.1308
r86 66 69 0.655813
r87 65 68 0.652298
r88 65 66 4.12618
r89 48 79 1.82344
r90 43 57 1.16709
r91 43 73 2.16729
r92 38 69 1.82344
r93 25 57 0.238214
r94 23 25 2.04225
r95 20 23 0.0685365
r96 18 23 0.5835
r97 18 19 2.8008
r98 15 19 0.652036
r99 8 20 2.5674
r100 6 48 1.16709
r101 4 15 2.5674
r102 2 38 1.16709
.ends

.subckt PM_G2_AOI21_N1_VDD 2 4 6 8 10 45 46 48 50 54 56 57 58 63 65 67 68 74 Vss
c60 74 Vss 0.00498639f
c61 68 Vss 3.56526e-19
c62 65 Vss 0.00188744f
c63 63 Vss 0.00658029f
c64 58 Vss 0.00166035f
c65 57 Vss 6.17427e-19
c66 56 Vss 0.0030725f
c67 54 Vss 0.0015334f
c68 50 Vss 0.0128179f
c69 48 Vss 0.00148319f
c70 46 Vss 0.00118366f
c71 45 Vss 0.00509044f
c72 33 Vss 0.0307391f
c73 26 Vss 0.10055f
c74 22 Vss 0.0348457f
c75 21 Vss 0.0712517f
c76 10 Vss 0.00241752f
c77 8 Vss 0.0830779f
c78 6 Vss 0.0830019f
c79 4 Vss 0.00285737f
c80 2 Vss 0.0825892f
r81 64 68 0.551426
r82 64 65 4.16786
r83 63 68 0.551426
r84 62 63 13.2955
r85 58 68 0.0828784
r86 58 60 1.82344
r87 56 62 0.652298
r88 56 57 4.22534
r89 54 74 1.16709
r90 52 57 0.652298
r91 52 54 2.12561
r92 51 67 0.326018
r93 50 65 0.652036
r94 50 51 15.6711
r95 46 48 1.82344
r96 45 67 0.326018
r97 44 46 0.655813
r98 44 45 4.16786
r99 29 74 0.238214
r100 27 33 0.494161
r101 27 29 1.45875
r102 26 30 0.652036
r103 26 29 1.45875
r104 23 33 0.128424
r105 21 33 0.494161
r106 21 22 2.8008
r107 18 22 0.652036
r108 10 60 1.16709
r109 8 30 2.5674
r110 6 23 2.5674
r111 4 48 1.16709
r112 2 18 2.5674
.ends

.subckt PM_G2_AOI21_N1_B 2 4 20 23 29 Vss
c19 29 Vss 0.00607059f
c20 23 Vss 9.01834e-19
c21 20 Vss 0.0916059f
c22 16 Vss 0.0586024f
c23 4 Vss 0.0980254f
c24 2 Vss 0.320472f
r25 26 29 1.16709
r26 23 26 0.0833571
r27 18 20 2.04225
r28 16 29 0.197068
r29 13 16 1.2837
r30 10 20 0.0685365
r31 8 18 0.0685365
r32 7 13 0.0685365
r33 4 10 3.0342
r34 2 8 8.6358
r35 2 7 2.5674
.ends

.subckt PM_G2_AOI21_N1_C 2 4 6 17 24 28 31 35 38 42 45 58 Vss
c45 58 Vss 0.00118496f
c46 45 Vss 0.00482667f
c47 38 Vss 0.00276154f
c48 31 Vss 0.00515878f
c49 28 Vss 0.0945059f
c50 24 Vss 0.0559062f
c51 17 Vss 1.54762e-19
c52 6 Vss 0.178585f
c53 4 Vss 0.147123f
c54 2 Vss 0.0809403f
r55 54 58 0.652036
r56 38 58 5.16814
r57 38 42 0.0416786
r58 31 45 1.16709
r59 31 54 8.58579
r60 31 35 0.0416786
r61 26 28 2.04225
r62 24 45 0.197068
r63 21 24 1.2837
r64 18 28 0.0685365
r65 17 38 1.16709
r66 13 26 0.0685365
r67 13 17 2.8008
r68 10 21 0.0685365
r69 6 18 5.835
r70 4 17 3.0342
r71 2 10 2.5674
.ends

.subckt PM_G2_AOI21_N1_Z 2 4 30 33 Vss
c30 30 Vss 0.00225284f
c31 4 Vss 0.00143442f
c32 2 Vss 0.00153036f
r33 33 35 3.83443
r34 30 33 5.33486
r35 4 35 1.16709
r36 2 30 1.16709
.ends

.subckt PM_G2_AOI21_N1_A 2 4 10 11 13 14 15 20 24 28 31 Vss
c37 31 Vss 4.87906e-19
c38 28 Vss 4.59888e-19
c39 24 Vss 1.50097e-19
c40 20 Vss 0.0822806f
c41 18 Vss 0.0247918f
c42 15 Vss 0.032139f
c43 14 Vss 0.0725371f
c44 13 Vss 0.0312529f
c45 11 Vss 0.0345237f
c46 10 Vss 0.122163f
c47 2 Vss 0.188674f
r48 28 31 1.16709
r49 24 31 0.262036
r50 20 31 0.238214
r51 18 24 0.326018
r52 18 20 0.64185
r53 15 24 2.50905
r54 14 24 0.326018
r55 14 24 0.1167
r56 13 15 0.652036
r57 12 13 1.22535
r58 10 12 0.652036
r59 10 11 3.09255
r60 7 11 0.652036
r61 4 20 2.4507
r62 2 7 6.1851
.ends

.subckt G2_AOI21_N1  VSS VDD B C Z A
*
* A	A
* Z	Z
* C	C
* B	B
* VDD	VDD
* VSS	VSS
XI1.X0 N_Z_XI1.X0_D N_VDD_XI1.X0_PGD N_A_XI1.X0_CG N_B_XI1.X0_PGS N_VSS_XI1.X0_S
+ TIGFET_HPNW1
XI6.X0 N_Z_XI6.X0_D N_VSS_XI6.X0_PGD N_B_XI6.X0_CG N_C_XI6.X0_PGS N_VDD_XI6.X0_S
+ TIGFET_HPNW1
XI5.X0 N_Z_XI1.X0_D N_VDD_XI5.X0_PGD N_C_XI5.X0_CG N_VDD_XI5.X0_PGS
+ N_VSS_XI5.X0_S TIGFET_HPNW1
XI7.X0 N_Z_XI6.X0_D N_VSS_XI7.X0_PGD N_A_XI7.X0_CG N_C_XI7.X0_PGS N_VDD_XI7.X0_S
+ TIGFET_HPNW1
*
x_PM_G2_AOI21_N1_VSS N_VSS_XI1.X0_S N_VSS_XI6.X0_PGD N_VSS_XI5.X0_S
+ N_VSS_XI7.X0_PGD N_VSS_c_3_p N_VSS_c_46_p N_VSS_c_2_p N_VSS_c_4_p N_VSS_c_8_p
+ N_VSS_c_20_p N_VSS_c_23_p N_VSS_c_9_p N_VSS_c_1_p N_VSS_c_5_p N_VSS_c_6_p
+ N_VSS_c_13_p N_VSS_c_10_p N_VSS_c_16_p N_VSS_c_17_p VSS N_VSS_c_18_p Vss
+ PM_G2_AOI21_N1_VSS
x_PM_G2_AOI21_N1_VDD N_VDD_XI1.X0_PGD N_VDD_XI6.X0_S N_VDD_XI5.X0_PGD
+ N_VDD_XI5.X0_PGS N_VDD_XI7.X0_S N_VDD_c_89_p N_VDD_c_54_n N_VDD_c_55_n
+ N_VDD_c_56_n N_VDD_c_77_p N_VDD_c_60_n N_VDD_c_64_n N_VDD_c_65_n N_VDD_c_67_n
+ N_VDD_c_72_n VDD N_VDD_c_75_n N_VDD_c_78_p Vss PM_G2_AOI21_N1_VDD
x_PM_G2_AOI21_N1_B N_B_XI1.X0_PGS N_B_XI6.X0_CG N_B_c_122_p B N_B_c_119_n Vss
+ PM_G2_AOI21_N1_B
x_PM_G2_AOI21_N1_C N_C_XI6.X0_PGS N_C_XI5.X0_CG N_C_XI7.X0_PGS N_C_c_143_n
+ N_C_c_146_n N_C_c_147_n N_C_c_134_n C N_C_c_136_n C N_C_c_137_n N_C_c_140_n
+ Vss PM_G2_AOI21_N1_C
x_PM_G2_AOI21_N1_Z N_Z_XI1.X0_D N_Z_XI6.X0_D N_Z_c_182_n Z Vss PM_G2_AOI21_N1_Z
x_PM_G2_AOI21_N1_A N_A_XI1.X0_CG N_A_XI7.X0_CG N_A_c_208_n N_A_c_225_n
+ N_A_c_226_n N_A_c_209_n N_A_c_227_n N_A_c_211_n N_A_c_212_n A N_A_c_216_n Vss
+ PM_G2_AOI21_N1_A
cc_1 N_VSS_c_1_p N_VDD_c_54_n 4.93612e-19
cc_2 N_VSS_c_2_p N_VDD_c_55_n 9.30121e-19
cc_3 N_VSS_c_3_p N_VDD_c_56_n 0.0011834f
cc_4 N_VSS_c_4_p N_VDD_c_56_n 0.00161703f
cc_5 N_VSS_c_5_p N_VDD_c_56_n 0.00445263f
cc_6 N_VSS_c_6_p N_VDD_c_56_n 0.00169823f
cc_7 N_VSS_XI5.X0_S N_VDD_c_60_n 3.83684e-19
cc_8 N_VSS_c_8_p N_VDD_c_60_n 4.79306e-19
cc_9 N_VSS_c_9_p N_VDD_c_60_n 0.0035571f
cc_10 N_VSS_c_10_p N_VDD_c_60_n 0.00109026f
cc_11 N_VSS_c_9_p N_VDD_c_64_n 0.00162315f
cc_12 N_VSS_c_8_p N_VDD_c_65_n 2.13058e-19
cc_13 N_VSS_c_13_p N_VDD_c_65_n 5.33968e-19
cc_14 N_VSS_XI5.X0_S N_VDD_c_67_n 9.5668e-19
cc_15 N_VSS_c_8_p N_VDD_c_67_n 0.00165395f
cc_16 N_VSS_c_16_p N_VDD_c_67_n 0.00300233f
cc_17 N_VSS_c_17_p N_VDD_c_67_n 0.00605714f
cc_18 N_VSS_c_18_p N_VDD_c_67_n 8.91588e-19
cc_19 N_VSS_c_4_p N_VDD_c_72_n 4.42697e-19
cc_20 N_VSS_c_20_p N_VDD_c_72_n 3.70842e-19
cc_21 N_VSS_c_17_p N_VDD_c_72_n 0.00278561f
cc_22 N_VSS_c_17_p N_VDD_c_75_n 9.45256e-19
cc_23 N_VSS_c_23_p B 3.22996e-19
cc_24 N_VSS_c_9_p B 3.31649e-19
cc_25 N_VSS_XI6.X0_PGD N_C_XI6.X0_PGS 0.00161425f
cc_26 N_VSS_c_4_p N_C_c_134_n 5.88052e-19
cc_27 N_VSS_c_17_p N_C_c_134_n 0.00138265f
cc_28 N_VSS_c_17_p N_C_c_136_n 3.65158e-19
cc_29 N_VSS_XI6.X0_PGD N_C_c_137_n 3.23173e-19
cc_30 N_VSS_c_4_p N_C_c_137_n 3.44698e-19
cc_31 N_VSS_c_20_p N_C_c_137_n 3.34921e-19
cc_32 N_VSS_c_9_p N_C_c_140_n 0.00303126f
cc_33 N_VSS_c_17_p N_C_c_140_n 3.90377e-19
cc_34 N_VSS_XI1.X0_S N_Z_XI1.X0_D 3.43419e-19
cc_35 N_VSS_XI5.X0_S N_Z_XI1.X0_D 3.43419e-19
cc_36 N_VSS_c_2_p N_Z_XI1.X0_D 3.48267e-19
cc_37 N_VSS_c_8_p N_Z_XI1.X0_D 3.48267e-19
cc_38 N_VSS_XI1.X0_S N_Z_c_182_n 3.48267e-19
cc_39 N_VSS_XI5.X0_S N_Z_c_182_n 3.48267e-19
cc_40 N_VSS_c_2_p N_Z_c_182_n 5.69026e-19
cc_41 N_VSS_c_8_p N_Z_c_182_n 5.69026e-19
cc_42 N_VSS_c_9_p N_Z_c_182_n 4.18012e-19
cc_43 N_VSS_c_17_p N_Z_c_182_n 5.20852e-19
cc_44 N_VSS_XI6.X0_PGD N_A_c_208_n 7.38139e-19
cc_45 N_VSS_XI7.X0_PGD N_A_c_209_n 0.00160007f
cc_46 N_VSS_c_46_p N_A_c_209_n 3.07681e-19
cc_47 N_VSS_c_20_p N_A_c_211_n 0.00255152f
cc_48 N_VSS_c_46_p N_A_c_212_n 8.89952e-19
cc_49 N_VSS_c_20_p N_A_c_212_n 2.75949e-19
cc_50 N_VSS_c_4_p A 5.37794e-19
cc_51 N_VSS_c_20_p A 4.56568e-19
cc_52 N_VSS_c_4_p N_A_c_216_n 4.56568e-19
cc_53 N_VSS_c_20_p N_A_c_216_n 6.1245e-19
cc_54 N_VDD_XI1.X0_PGD N_B_XI1.X0_PGS 0.0015605f
cc_55 N_VDD_c_77_p B 5.21626e-19
cc_56 N_VDD_c_78_p B 3.48267e-19
cc_57 N_VDD_XI1.X0_PGD N_B_c_119_n 3.73456e-19
cc_58 N_VDD_c_77_p N_B_c_119_n 4.2695e-19
cc_59 N_VDD_c_78_p N_B_c_119_n 5.71625e-19
cc_60 N_VDD_c_78_p N_C_XI5.X0_CG 0.00117555f
cc_61 N_VDD_c_77_p N_C_c_143_n 4.85469e-19
cc_62 N_VDD_c_67_n N_C_c_143_n 5.82627e-19
cc_63 N_VDD_c_78_p N_C_c_143_n 0.00182135f
cc_64 N_VDD_c_56_n N_C_c_146_n 3.54083e-19
cc_65 N_VDD_XI5.X0_PGS N_C_c_147_n 7.91098e-19
cc_66 N_VDD_c_67_n N_C_c_147_n 4.33233e-19
cc_67 N_VDD_c_89_p N_C_c_134_n 3.48763e-19
cc_68 N_VDD_c_55_n N_C_c_134_n 3.25844e-19
cc_69 N_VDD_c_56_n N_C_c_134_n 0.00156477f
cc_70 N_VDD_c_56_n N_C_c_136_n 7.40864e-19
cc_71 N_VDD_c_77_p N_C_c_136_n 5.82566e-19
cc_72 N_VDD_c_67_n N_C_c_136_n 4.90875e-19
cc_73 N_VDD_c_78_p N_C_c_136_n 4.56568e-19
cc_74 N_VDD_c_89_p N_C_c_137_n 4.55865e-19
cc_75 N_VDD_c_56_n N_C_c_137_n 2.55177e-19
cc_76 N_VDD_XI6.X0_S N_Z_XI6.X0_D 3.43419e-19
cc_77 N_VDD_XI7.X0_S N_Z_XI6.X0_D 3.43419e-19
cc_78 N_VDD_c_55_n N_Z_XI6.X0_D 3.72199e-19
cc_79 N_VDD_c_56_n N_Z_XI6.X0_D 3.7884e-19
cc_80 N_VDD_c_65_n N_Z_XI6.X0_D 3.72199e-19
cc_81 N_VDD_XI6.X0_S N_Z_c_182_n 3.48267e-19
cc_82 N_VDD_XI7.X0_S N_Z_c_182_n 3.48267e-19
cc_83 N_VDD_c_55_n N_Z_c_182_n 5.68773e-19
cc_84 N_VDD_c_56_n N_Z_c_182_n 6.9352e-19
cc_85 N_VDD_c_65_n N_Z_c_182_n 7.77875e-19
cc_86 N_VDD_c_67_n N_Z_c_182_n 9.95668e-19
cc_87 N_VDD_XI1.X0_PGD N_A_c_208_n 6.1925e-19
cc_88 N_VDD_XI5.X0_PGD N_A_c_209_n 3.67852e-19
cc_89 N_VDD_c_67_n A 3.35548e-19
cc_90 N_VDD_c_56_n N_A_c_216_n 2.29043e-19
cc_91 N_VDD_c_67_n N_A_c_216_n 3.66936e-19
cc_92 N_B_c_122_p N_C_XI6.X0_PGS 0.00189436f
cc_93 N_B_XI1.X0_PGS N_C_XI5.X0_CG 2.46172e-19
cc_94 N_B_c_122_p N_C_XI7.X0_PGS 4.95875e-19
cc_95 N_B_c_122_p N_C_c_146_n 3.12087e-19
cc_96 N_B_XI1.X0_PGS N_Z_c_182_n 2.61881e-19
cc_97 N_B_XI1.X0_PGS N_A_XI1.X0_CG 0.00900711f
cc_98 N_B_c_119_n N_A_XI1.X0_CG 0.00150571f
cc_99 N_B_c_122_p N_A_c_225_n 0.00163406f
cc_100 N_B_XI1.X0_PGS N_A_c_226_n 6.07734e-19
cc_101 N_B_c_122_p N_A_c_227_n 0.00136506f
cc_102 N_B_c_122_p N_A_c_216_n 2.87722e-19
cc_103 N_C_c_143_n N_Z_c_182_n 9.29334e-19
cc_104 N_C_c_134_n N_Z_c_182_n 0.00223036f
cc_105 N_C_c_136_n N_Z_c_182_n 0.00299789f
cc_106 N_C_c_140_n N_Z_c_182_n 2.70867e-19
cc_107 N_C_XI5.X0_CG N_A_XI1.X0_CG 5.49495e-19
cc_108 N_C_c_143_n N_A_XI1.X0_CG 5.65259e-19
cc_109 N_C_XI7.X0_PGS N_A_c_208_n 8.10159e-19
cc_110 N_C_c_147_n N_A_c_208_n 0.00121323f
cc_111 N_C_XI7.X0_PGS N_A_c_211_n 5.00154e-19
cc_112 N_C_c_143_n N_A_c_212_n 9.55393e-19
cc_113 N_C_c_143_n A 4.56568e-19
cc_114 N_C_c_136_n A 6.2998e-19
cc_115 N_C_XI7.X0_PGS N_A_c_216_n 0.00570455f
cc_116 N_C_c_143_n N_A_c_216_n 8.77002e-19
cc_117 N_C_c_147_n N_A_c_216_n 0.00119367f
cc_118 N_C_c_136_n N_A_c_216_n 4.56568e-19
cc_119 N_Z_c_182_n N_A_XI1.X0_CG 5.75111e-19
cc_120 N_Z_c_182_n N_A_c_208_n 4.34888e-19
cc_121 N_Z_c_182_n A 0.0015179f
cc_122 N_Z_c_182_n N_A_c_216_n 8.99071e-19
*
.ends
*
*
.subckt AOI21_HPNW1 A0 A1 B0 Y VDD VSS
xgate (VSS VDD A1 B0 Y A0) G2_AOI21_N1
.ends
*
* File: G2_BUF1_N1.pex.netlist
* Created: Wed Mar  2 15:26:00 2022
* Program "Calibre xRC"
* Version "v2021.2_37.20"
*
.subckt PM_G2_BUF1_N1_VDD 2 4 7 11 28 32 52 56 58 59 63 67 69 73 77 90 95 Vss
c58 95 Vss 0.00471589f
c59 90 Vss 0.0048335f
c60 80 Vss 7.0893e-19
c61 79 Vss 7.0893e-19
c62 77 Vss 0.00107913f
c63 73 Vss 0.00106523f
c64 70 Vss 0.00175834f
c65 69 Vss 0.00726612f
c66 67 Vss 0.00110053f
c67 63 Vss 0.00110053f
c68 60 Vss 0.00175834f
c69 59 Vss 0.00712138f
c70 58 Vss 0.00330526f
c71 56 Vss 0.00424287f
c72 52 Vss 0.00330526f
c73 32 Vss 0.0346129f
c74 31 Vss 0.101192f
c75 28 Vss 0.0346129f
c76 27 Vss 0.101192f
c77 11 Vss 0.16682f
c78 7 Vss 0.16682f
c79 4 Vss 0.00203161f
c80 2 Vss 0.00233151f
r81 77 95 1.16709
r82 75 77 2.16729
r83 73 90 1.16709
r84 71 73 2.16729
r85 69 75 0.652036
r86 69 70 10.1279
r87 65 80 0.0828784
r88 65 67 1.82344
r89 61 79 0.0828784
r90 61 63 1.82344
r91 59 71 0.652036
r92 59 60 10.1279
r93 58 70 0.652036
r94 57 80 0.551426
r95 57 58 4.16786
r96 54 80 0.551426
r97 54 56 3.45932
r98 53 79 0.551426
r99 53 56 1.45875
r100 52 79 0.551426
r101 51 60 0.652036
r102 51 52 4.16786
r103 34 95 0.238214
r104 32 34 1.45875
r105 31 38 0.652036
r106 31 34 1.45875
r107 30 90 0.238214
r108 28 30 1.45875
r109 27 35 0.652036
r110 27 30 1.45875
r111 24 32 0.652036
r112 21 28 0.652036
r113 11 38 2.5674
r114 11 24 2.5674
r115 7 35 2.5674
r116 7 21 2.5674
r117 4 67 1.16709
r118 2 63 1.16709
.ends

.subckt PM_G2_BUF1_N1_VSS 3 7 10 12 27 28 31 32 52 57 62 67 72 77 97 98 99 100
+ 101 105 110 114 116 Vss
c60 118 Vss 6.78504e-19
c61 117 Vss 6.78504e-19
c62 116 Vss 0.00235663f
c63 114 Vss 0.00287691f
c64 110 Vss 0.00235663f
c65 105 Vss 9.66804e-19
c66 101 Vss 8.0746e-19
c67 100 Vss 5.83649e-19
c68 99 Vss 0.00631424f
c69 98 Vss 5.83649e-19
c70 97 Vss 0.00625937f
c71 77 Vss 0.00398915f
c72 72 Vss 0.00399741f
c73 67 Vss 1.62164e-19
c74 62 Vss 3.56438e-22
c75 57 Vss 8.13664e-19
c76 52 Vss 7.92706e-19
c77 34 Vss 1.28632e-19
c78 32 Vss 0.0341976f
c79 31 Vss 0.0984533f
c80 28 Vss 0.0341976f
c81 27 Vss 0.0984533f
c82 12 Vss 0.00237948f
c83 10 Vss 0.00207958f
c84 7 Vss 0.16682f
c85 3 Vss 0.16682f
r86 115 118 0.551426
r87 115 116 4.16786
r88 112 118 0.551426
r89 112 114 2.12561
r90 111 117 0.551426
r91 111 114 2.79246
r92 110 117 0.551426
r93 109 110 4.16786
r94 105 118 0.0828784
r95 101 117 0.0828784
r96 99 116 0.652036
r97 99 100 10.1279
r98 97 109 0.652036
r99 97 98 10.1279
r100 93 100 0.652036
r101 89 98 0.652036
r102 67 105 1.82344
r103 62 101 1.82344
r104 57 77 1.16709
r105 57 93 2.16729
r106 52 72 1.16709
r107 52 89 2.16729
r108 34 77 0.238214
r109 32 34 1.45875
r110 31 38 0.652036
r111 31 34 1.45875
r112 30 72 0.238214
r113 28 30 1.45875
r114 27 35 0.652036
r115 27 30 1.45875
r116 24 32 0.652036
r117 21 28 0.652036
r118 12 67 1.16709
r119 10 62 1.16709
r120 7 38 2.5674
r121 7 24 2.5674
r122 3 35 2.5674
r123 3 21 2.5674
.ends

.subckt PM_G2_BUF1_N1_A 2 4 9 12 22 25 28 Vss
c18 28 Vss 0.00276471f
c19 25 Vss 3.55586e-19
c20 12 Vss 0.20721f
c21 9 Vss 0.0715834f
c22 7 Vss 0.0247918f
c23 4 Vss 0.0847975f
r24 25 28 1.16709
r25 22 25 0.0795682
r26 15 28 0.0476429
r27 13 15 0.326018
r28 13 15 0.1167
r29 12 16 0.652036
r30 12 15 6.7686
r31 9 28 0.357321
r32 7 15 0.326018
r33 7 9 0.40845
r34 4 16 2.5674
r35 2 9 2.15895
.ends

.subckt PM_G2_BUF1_N1_Z 2 19 Vss
c15 19 Vss 2.80869e-19
c16 2 Vss 0.00176567f
r17 16 19 0.0364688
r18 2 16 1.16709
.ends

.subckt PM_G2_BUF1_N1_NET17 2 4 6 18 36 41 50 58 Vss
c37 58 Vss 5.85801e-19
c38 50 Vss 0.00307045f
c39 41 Vss 0.0013766f
c40 36 Vss 0.00137137f
c41 22 Vss 0.0247918f
c42 19 Vss 0.0295882f
c43 18 Vss 0.176231f
c44 6 Vss 0.0715834f
c45 4 Vss 0.00176567f
c46 2 Vss 0.0847975f
r47 54 58 0.653045
r48 41 50 1.16709
r49 41 58 2.1395
r50 36 54 3.45932
r51 28 50 0.0476429
r52 26 50 0.357321
r53 22 28 0.326018
r54 22 26 0.40845
r55 19 28 6.7686
r56 18 28 0.326018
r57 18 28 0.1167
r58 15 19 0.652036
r59 6 26 2.15895
r60 4 36 1.16709
r61 2 15 2.5674
.ends

.subckt G2_BUF1_N1  VDD VSS A Z
*
* Z	Z
* A	A
* VSS	VSS
* VDD	VDD
XI3.X0 N_Z_XI3.X0_D N_VSS_XI3.X0_PGD N_NET17_XI3.X0_CG N_VSS_XI3.X0_PGD
+ N_VDD_XI3.X0_S TIGFET_HPNW1
XI2.X0 N_NET17_XI2.X0_D N_VSS_XI2.X0_PGD N_A_XI2.X0_CG N_VSS_XI2.X0_PGD
+ N_VDD_XI2.X0_S TIGFET_HPNW1
XI0.X0 N_Z_XI3.X0_D N_VDD_XI0.X0_PGD N_NET17_XI0.X0_CG N_VDD_XI0.X0_PGD
+ N_VSS_XI0.X0_S TIGFET_HPNW1
XI1.X0 N_NET17_XI2.X0_D N_VDD_XI1.X0_PGD N_A_XI1.X0_CG N_VDD_XI1.X0_PGD
+ N_VSS_XI1.X0_S TIGFET_HPNW1
*
x_PM_G2_BUF1_N1_VDD N_VDD_XI3.X0_S N_VDD_XI2.X0_S N_VDD_XI0.X0_PGD
+ N_VDD_XI1.X0_PGD N_VDD_c_3_p N_VDD_c_6_p N_VDD_c_9_p VDD N_VDD_c_13_p
+ N_VDD_c_4_p N_VDD_c_38_p N_VDD_c_43_p N_VDD_c_7_p N_VDD_c_11_p N_VDD_c_15_p
+ N_VDD_c_12_p N_VDD_c_16_p Vss PM_G2_BUF1_N1_VDD
x_PM_G2_BUF1_N1_VSS N_VSS_XI3.X0_PGD N_VSS_XI2.X0_PGD N_VSS_XI0.X0_S
+ N_VSS_XI1.X0_S N_VSS_c_61_n N_VSS_c_63_n N_VSS_c_64_n N_VSS_c_66_n
+ N_VSS_c_67_n N_VSS_c_71_n N_VSS_c_101_p N_VSS_c_110_p N_VSS_c_75_n
+ N_VSS_c_79_n N_VSS_c_83_n N_VSS_c_84_n N_VSS_c_85_n N_VSS_c_86_n N_VSS_c_104_p
+ N_VSS_c_112_p N_VSS_c_87_n VSS N_VSS_c_88_n Vss PM_G2_BUF1_N1_VSS
x_PM_G2_BUF1_N1_A N_A_XI2.X0_CG N_A_XI1.X0_CG N_A_c_124_n N_A_c_120_n A
+ N_A_c_122_n N_A_c_123_n Vss PM_G2_BUF1_N1_A
x_PM_G2_BUF1_N1_Z N_Z_XI3.X0_D Z Vss PM_G2_BUF1_N1_Z
x_PM_G2_BUF1_N1_NET17 N_NET17_XI3.X0_CG N_NET17_XI2.X0_D N_NET17_XI0.X0_CG
+ N_NET17_c_155_n N_NET17_c_157_n N_NET17_c_160_n N_NET17_c_164_n
+ N_NET17_c_168_n Vss PM_G2_BUF1_N1_NET17
cc_1 N_VDD_XI0.X0_PGD N_VSS_XI3.X0_PGD 0.00173038f
cc_2 N_VDD_XI1.X0_PGD N_VSS_XI2.X0_PGD 0.00173038f
cc_3 N_VDD_c_3_p N_VSS_c_61_n 0.00173038f
cc_4 N_VDD_c_4_p N_VSS_c_61_n 2.91357e-19
cc_5 N_VDD_c_4_p N_VSS_c_63_n 3.24852e-19
cc_6 N_VDD_c_6_p N_VSS_c_64_n 0.00173038f
cc_7 N_VDD_c_7_p N_VSS_c_64_n 2.91357e-19
cc_8 N_VDD_c_7_p N_VSS_c_66_n 3.24852e-19
cc_9 N_VDD_c_9_p N_VSS_c_67_n 8.69498e-19
cc_10 N_VDD_c_4_p N_VSS_c_67_n 0.00141228f
cc_11 N_VDD_c_11_p N_VSS_c_67_n 0.00106872f
cc_12 N_VDD_c_12_p N_VSS_c_67_n 3.48267e-19