* sclib_tigfet10_hpnw8_tt_0p70v_25c.sp
.subckt TIGFET_HPNW8 D PGD CG PGS S
xgate (D PGD CG PGS S) TIGFET nw=8
.ends
*
* File: G3_AND2_N2.pex.netlist
* Created: Mon Feb 28 10:46:36 2022
* Program "Calibre xRC"
* Version "v2021.2_37.20"
*
.subckt PM_G3_AND2_N2_VSS 2 3 5 6 8 9 11 13 27 28 30 49 62 67 73 78 83 88 97 102
+ 111 112 116 117 122 128 130 135 136 137 139 Vss
c70 137 Vss 3.78257e-19
c71 136 Vss 3.62111e-19
c72 135 Vss 0.00438377f
c73 130 Vss 0.00256681f
c74 128 Vss 0.00549491f
c75 122 Vss 0.00414054f
c76 117 Vss 8.38241e-19
c77 116 Vss 0.00175385f
c78 112 Vss 7.28672e-19
c79 111 Vss 0.00525523f
c80 102 Vss 0.00402938f
c81 97 Vss 0.00450731f
c82 88 Vss 7.10513e-22
c83 83 Vss 4.8239e-19
c84 78 Vss 0.00106653f
c85 73 Vss 0.00125808f
c86 67 Vss 0.00537538f
c87 62 Vss 0.00490594f
c88 58 Vss 0.0299355f
c89 57 Vss 0.0299355f
c90 50 Vss 0.0347118f
c91 49 Vss 0.0994217f
c92 41 Vss 0.106723f
c93 35 Vss 0.0688517f
c94 30 Vss 5.38535e-20
c95 28 Vss 0.0340588f
c96 27 Vss 0.064644f
c97 11 Vss 0.134525f
c98 9 Vss 0.134971f
c99 8 Vss 0.133544f
c100 6 Vss 0.134177f
c101 5 Vss 0.138048f
c102 3 Vss 0.135913f
r103 135 139 0.326018
r104 134 135 5.08479
r105 130 134 0.655813
r106 129 137 0.494161
r107 128 139 0.326018
r108 128 129 10.1279
r109 124 137 0.128424
r110 123 136 0.494161
r111 122 137 0.494161
r112 122 123 10.378
r113 118 136 0.128424
r114 116 136 0.494161
r115 116 117 4.33457
r116 111 117 0.652036
r117 110 112 0.655813
r118 110 111 16.6297
r119 88 130 1.82344
r120 83 102 1.16709
r121 83 124 2.66743
r122 78 97 1.16709
r123 78 118 2.16729
r124 73 112 1.82344
r125 67 88 1.16709
r126 62 73 1.16709
r127 52 102 0.0476429
r128 50 52 1.45875
r129 49 53 0.652036
r130 49 52 1.45875
r131 46 50 0.652036
r132 42 58 0.494161
r133 41 43 0.652036
r134 41 42 2.9175
r135 37 58 0.128424
r136 36 57 0.494161
r137 35 58 0.494161
r138 35 36 2.8008
r139 31 57 0.128424
r140 30 97 0.238214
r141 28 30 1.4004
r142 27 57 0.494161
r143 27 30 1.5171
r144 24 28 0.652036
r145 13 67 0.185659
r146 11 46 3.8511
r147 9 53 3.8511
r148 8 43 3.8511
r149 6 37 3.8511
r150 5 24 3.8511
r151 3 31 3.8511
r152 2 62 0.185659
.ends

.subckt PM_G3_AND2_N2_VDD 1 3 5 7 8 10 24 26 33 43 48 53 55 56 60 62 63 66 70 72
+ 74 76 78 79 81 87 96 Vss
c85 96 Vss 0.00462548f
c86 87 Vss 0.00521601f
c87 79 Vss 4.60053e-19
c88 78 Vss 4.52364e-19
c89 76 Vss 0.00122604f
c90 74 Vss 6.12561e-19
c91 72 Vss 0.00375739f
c92 70 Vss 0.001382f
c93 66 Vss 0.00251556f
c94 63 Vss 8.66752e-19
c95 62 Vss 0.00754689f
c96 60 Vss 0.0017718f
c97 57 Vss 0.00173794f
c98 56 Vss 0.010708f
c99 55 Vss 0.00235908f
c100 53 Vss 0.00679887f
c101 48 Vss 0.00711219f
c102 43 Vss 0.00386059f
c103 33 Vss 0.0357726f
c104 32 Vss 0.102409f
c105 26 Vss 0.170515f
c106 24 Vss 0.0339269f
c107 10 Vss 0.136393f
c108 8 Vss 0.13497f
c109 7 Vss 0.00143442f
c110 1 Vss 0.117228f
r111 76 96 1.16709
r112 74 81 0.326018
r113 74 76 2.66743
r114 73 79 0.494161
r115 72 81 0.326018
r116 72 73 7.46046
r117 68 79 0.128424
r118 68 70 5.75164
r119 66 87 1.16709
r120 64 66 3.83443
r121 62 79 0.494161
r122 62 63 13.0037
r123 58 78 0.0828784
r124 58 60 1.82344
r125 56 64 0.652036
r126 56 57 10.0862
r127 55 63 0.652036
r128 54 78 0.551426
r129 54 55 5.08479
r130 53 78 0.551426
r131 52 57 0.652036
r132 52 53 13.0454
r133 48 70 1.16709
r134 43 60 1.16709
r135 35 96 0.0476429
r136 33 35 1.45875
r137 32 36 0.652036
r138 32 35 1.45875
r139 28 33 0.652036
r140 26 87 0.428786
r141 24 26 5.3682
r142 20 24 0.652036
r143 10 36 3.8511
r144 8 28 3.8511
r145 7 48 0.185659
r146 5 48 0.185659
r147 3 43 0.185659
r148 1 20 3.1509
.ends

.subckt PM_G3_AND2_N2_A 2 4 10 13 18 21 26 31 Vss
c26 31 Vss 0.00351072f
c27 26 Vss 0.00323449f
c28 18 Vss 9.2489e-19
c29 13 Vss 0.112394f
c30 2 Vss 0.112081f
r31 23 31 1.16709
r32 21 23 2.95918
r33 18 26 1.16709
r34 18 21 2.41736
r35 13 31 0.50025
r36 10 26 0.50025
r37 4 13 3.09255
r38 2 10 3.09255
.ends

.subckt PM_G3_AND2_N2_NET1 2 4 6 8 10 24 27 38 42 46 50 52 56 68 Vss
c52 68 Vss 0.00584624f
c53 58 Vss 1.47786e-19
c54 56 Vss 0.00230674f
c55 52 Vss 0.00700301f
c56 50 Vss 0.00103961f
c57 46 Vss 7.16542e-19
c58 42 Vss 0.00585482f
c59 38 Vss 0.00349773f
c60 27 Vss 9.81095e-20
c61 24 Vss 0.227317f
c62 21 Vss 0.125908f
c63 19 Vss 0.0247918f
c64 10 Vss 0.139046f
c65 6 Vss 0.00143442f
r66 56 68 1.16709
r67 54 56 3.45932
r68 53 58 0.128424
r69 52 54 0.652036
r70 52 53 7.46046
r71 48 58 0.494161
r72 48 50 6.54354
r73 44 58 0.494161
r74 44 46 3.83443
r75 42 50 1.16709
r76 38 46 1.16709
r77 27 68 0.0476429
r78 25 27 0.326018
r79 25 27 0.1167
r80 24 28 0.652036
r81 24 27 6.7686
r82 21 68 0.357321
r83 19 27 0.326018
r84 19 21 0.40845
r85 10 28 3.8511
r86 8 21 3.44265
r87 6 42 0.185659
r88 4 42 0.185659
r89 2 38 0.185659
.ends

.subckt PM_G3_AND2_N2_B 2 4 10 11 14 21 Vss
c26 21 Vss 3.50736e-19
c27 14 Vss 0.181075f
c28 11 Vss 0.0348746f
c29 10 Vss 0.288064f
c30 2 Vss 0.277377f
r31 18 21 0.0729375
r32 14 18 1.16709
r33 12 14 2.1006
r34 10 12 0.652036
r35 10 11 8.92755
r36 7 11 0.652036
r37 4 14 4.3179
r38 2 7 8.57745
.ends

.subckt PM_G3_AND2_N2_Z 2 4 13 18 Vss
c13 13 Vss 0.0052353f
c14 4 Vss 0.00143442f
r15 13 18 1.16709
r16 4 13 0.185659
r17 2 13 0.185659
.ends

.subckt G3_AND2_N2  VSS VDD A B Z
*
* Z	Z
* B	B
* A	A
* VDD	VDD
* VSS	VSS
XI5.X0 N_NET1_XI5.X0_D N_VDD_XI5.X0_PGD N_A_XI5.X0_CG N_B_XI5.X0_PGS
+ N_VSS_XI5.X0_S TIGFET_HPNW8
XI10.X0 N_NET1_XI10.X0_D N_VSS_XI10.X0_PGD N_A_XI10.X0_CG N_VSS_XI10.X0_PGS
+ N_VDD_XI10.X0_S TIGFET_HPNW8
XI6.X0 N_NET1_XI6.X0_D N_VSS_XI6.X0_PGD N_B_XI6.X0_CG N_VSS_XI6.X0_PGS
+ N_VDD_XI6.X0_S TIGFET_HPNW8
XI4.X0 N_Z_XI4.X0_D N_VSS_XI4.X0_PGD N_NET1_XI4.X0_CG N_VSS_XI4.X0_PGS
+ N_VDD_XI4.X0_S TIGFET_HPNW8
XI3.X0 N_Z_XI3.X0_D N_VDD_XI3.X0_PGD N_NET1_XI3.X0_CG N_VDD_XI3.X0_PGS
+ N_VSS_XI3.X0_S TIGFET_HPNW8
*
x_PM_G3_AND2_N2_VSS N_VSS_XI5.X0_S N_VSS_XI10.X0_PGD N_VSS_XI10.X0_PGS
+ N_VSS_XI6.X0_PGD N_VSS_XI6.X0_PGS N_VSS_XI4.X0_PGD N_VSS_XI4.X0_PGS
+ N_VSS_XI3.X0_S N_VSS_c_13_p N_VSS_c_14_p N_VSS_c_46_p N_VSS_c_2_p N_VSS_c_3_p
+ N_VSS_c_65_p N_VSS_c_4_p N_VSS_c_8_p N_VSS_c_24_p N_VSS_c_66_p N_VSS_c_9_p
+ N_VSS_c_26_p N_VSS_c_5_p N_VSS_c_6_p N_VSS_c_17_p N_VSS_c_20_p N_VSS_c_18_p
+ N_VSS_c_32_p N_VSS_c_70_p N_VSS_c_37_p N_VSS_c_19_p N_VSS_c_33_p VSS Vss
+ PM_G3_AND2_N2_VSS
x_PM_G3_AND2_N2_VDD N_VDD_XI5.X0_PGD N_VDD_XI10.X0_S N_VDD_XI6.X0_S
+ N_VDD_XI4.X0_S N_VDD_XI3.X0_PGD N_VDD_XI3.X0_PGS N_VDD_c_148_p N_VDD_c_130_p
+ N_VDD_c_72_n N_VDD_c_125_p N_VDD_c_126_p N_VDD_c_73_n N_VDD_c_77_n
+ N_VDD_c_81_n N_VDD_c_82_n N_VDD_c_83_n N_VDD_c_90_n N_VDD_c_123_p N_VDD_c_91_n
+ N_VDD_c_98_n N_VDD_c_104_n N_VDD_c_105_n N_VDD_c_108_n N_VDD_c_109_n VDD
+ N_VDD_c_119_p N_VDD_c_110_n Vss PM_G3_AND2_N2_VDD
x_PM_G3_AND2_N2_A N_A_XI5.X0_CG N_A_XI10.X0_CG N_A_c_164_n N_A_c_156_n
+ N_A_c_157_n A N_A_c_167_n N_A_c_160_n Vss PM_G3_AND2_N2_A
x_PM_G3_AND2_N2_NET1 N_NET1_XI5.X0_D N_NET1_XI10.X0_D N_NET1_XI6.X0_D
+ N_NET1_XI4.X0_CG N_NET1_XI3.X0_CG N_NET1_c_182_n N_NET1_c_183_n N_NET1_c_184_n
+ N_NET1_c_199_n N_NET1_c_186_n N_NET1_c_189_n N_NET1_c_190_n N_NET1_c_191_n
+ N_NET1_c_193_n Vss PM_G3_AND2_N2_NET1
x_PM_G3_AND2_N2_B N_B_XI5.X0_PGS N_B_XI6.X0_CG N_B_c_234_n N_B_c_236_n
+ N_B_c_241_n B Vss PM_G3_AND2_N2_B
x_PM_G3_AND2_N2_Z N_Z_XI4.X0_D N_Z_XI3.X0_D N_Z_c_260_n Z Vss PM_G3_AND2_N2_Z
cc_1 N_VSS_XI4.X0_PGD N_VDD_XI3.X0_PGD 0.00195824f
cc_2 N_VSS_c_2_p N_VDD_c_72_n 0.00195824f
cc_3 N_VSS_c_3_p N_VDD_c_73_n 9.5668e-19
cc_4 N_VSS_c_4_p N_VDD_c_73_n 0.00165395f
cc_5 N_VSS_c_5_p N_VDD_c_73_n 0.00670587f
cc_6 N_VSS_c_6_p N_VDD_c_73_n 0.00189531f
cc_7 N_VSS_XI10.X0_PGS N_VDD_c_77_n 2.75457e-19
cc_8 N_VSS_c_8_p N_VDD_c_77_n 4.50283e-19
cc_9 N_VSS_c_9_p N_VDD_c_77_n 3.70842e-19
cc_10 N_VSS_c_5_p N_VDD_c_77_n 0.00345577f
cc_11 N_VSS_c_4_p N_VDD_c_81_n 0.00247496f
cc_12 N_VSS_c_4_p N_VDD_c_82_n 4.32396e-19
cc_13 N_VSS_c_13_p N_VDD_c_83_n 0.00151774f
cc_14 N_VSS_c_14_p N_VDD_c_83_n 3.51214e-19
cc_15 N_VSS_c_8_p N_VDD_c_83_n 0.00161703f
cc_16 N_VSS_c_9_p N_VDD_c_83_n 2.03837e-19
cc_17 N_VSS_c_17_p N_VDD_c_83_n 0.00348097f
cc_18 N_VSS_c_18_p N_VDD_c_83_n 0.0059139f
cc_19 N_VSS_c_19_p N_VDD_c_83_n 7.61747e-19
cc_20 N_VSS_c_20_p N_VDD_c_90_n 0.00107346f
cc_21 N_VSS_XI6.X0_PGS N_VDD_c_91_n 2.23834e-19
cc_22 N_VSS_XI4.X0_PGS N_VDD_c_91_n 2.29703e-19
cc_23 N_VSS_c_8_p N_VDD_c_91_n 6.50938e-19
cc_24 N_VSS_c_24_p N_VDD_c_91_n 0.00193467f
cc_25 N_VSS_c_9_p N_VDD_c_91_n 2.56577e-19
cc_26 N_VSS_c_26_p N_VDD_c_91_n 9.55109e-19
cc_27 N_VSS_c_5_p N_VDD_c_91_n 3.54686e-19
cc_28 N_VSS_c_2_p N_VDD_c_98_n 4.82224e-19
cc_29 N_VSS_c_24_p N_VDD_c_98_n 0.00118142f
cc_30 N_VSS_c_26_p N_VDD_c_98_n 2.13453e-19
cc_31 N_VSS_c_18_p N_VDD_c_98_n 0.00133442f
cc_32 N_VSS_c_32_p N_VDD_c_98_n 0.00433318f
cc_33 N_VSS_c_33_p N_VDD_c_98_n 8.13487e-19
cc_34 N_VSS_c_32_p N_VDD_c_104_n 0.00157826f
cc_35 N_VSS_c_24_p N_VDD_c_105_n 9.21598e-19
cc_36 N_VSS_c_26_p N_VDD_c_105_n 3.82294e-19
cc_37 N_VSS_c_37_p N_VDD_c_105_n 5.22507e-19
cc_38 N_VSS_c_5_p N_VDD_c_108_n 0.00100712f
cc_39 N_VSS_c_18_p N_VDD_c_109_n 9.86755e-19
cc_40 N_VSS_c_24_p N_VDD_c_110_n 3.48267e-19
cc_41 N_VSS_c_26_p N_VDD_c_110_n 6.46219e-19
cc_42 N_VSS_c_9_p N_A_c_156_n 0.00249847f
cc_43 N_VSS_c_8_p N_A_c_157_n 2.94885e-19
cc_44 N_VSS_c_9_p N_A_c_157_n 3.71222e-19
cc_45 N_VSS_c_5_p N_A_c_157_n 0.00147463f
cc_46 N_VSS_c_46_p N_A_c_160_n 3.96531e-19
cc_47 N_VSS_c_8_p N_A_c_160_n 2.87758e-19
cc_48 N_VSS_c_9_p N_A_c_160_n 8.98435e-19
cc_49 N_VSS_XI4.X0_PGD N_NET1_c_182_n 4.26252e-19
cc_50 N_VSS_c_26_p N_NET1_c_183_n 9.4551e-19
cc_51 N_VSS_c_3_p N_NET1_c_184_n 3.43419e-19
cc_52 N_VSS_c_4_p N_NET1_c_184_n 3.48267e-19
cc_53 N_VSS_c_3_p N_NET1_c_186_n 3.48267e-19
cc_54 N_VSS_c_4_p N_NET1_c_186_n 8.50248e-19
cc_55 N_VSS_c_5_p N_NET1_c_186_n 5.59972e-19
cc_56 N_VSS_c_18_p N_NET1_c_189_n 2.3523e-19
cc_57 N_VSS_c_18_p N_NET1_c_190_n 4.47676e-19
cc_58 N_VSS_c_24_p N_NET1_c_191_n 5.58211e-19
cc_59 N_VSS_c_26_p N_NET1_c_191_n 3.49408e-19
cc_60 N_VSS_c_24_p N_NET1_c_193_n 3.2351e-19
cc_61 N_VSS_c_26_p N_NET1_c_193_n 2.68747e-19
cc_62 N_VSS_XI10.X0_PGD N_B_c_234_n 8.28117e-19
cc_63 N_VSS_XI6.X0_PGD N_B_c_234_n 8.28117e-19
cc_64 N_VSS_XI10.X0_PGS N_B_c_236_n 9.94582e-19
cc_65 N_VSS_c_65_p N_Z_c_260_n 3.43419e-19
cc_66 N_VSS_c_66_p N_Z_c_260_n 3.48267e-19
cc_67 N_VSS_c_65_p Z 3.48267e-19
cc_68 N_VSS_c_66_p Z 4.99861e-19
cc_69 N_VSS_c_32_p Z 2.34298e-19
cc_70 N_VSS_c_70_p Z 2.7826e-19
cc_71 N_VDD_XI5.X0_PGD N_A_XI5.X0_CG 5.26351e-19
cc_72 N_VDD_c_81_n N_A_c_164_n 3.14632e-19
cc_73 N_VDD_c_73_n N_A_c_157_n 0.00285022f
cc_74 N_VDD_c_81_n N_A_c_157_n 5.83159e-19
cc_75 N_VDD_XI5.X0_PGD N_A_c_167_n 2.78309e-19
cc_76 N_VDD_c_73_n N_A_c_167_n 3.66936e-19
cc_77 N_VDD_c_81_n N_A_c_167_n 3.4118e-19
cc_78 N_VDD_c_119_p N_A_c_167_n 4.44265e-19
cc_79 N_VDD_c_73_n N_A_c_160_n 4.70132e-19
cc_80 N_VDD_XI3.X0_PGD N_NET1_c_182_n 4.29017e-19
cc_81 N_VDD_c_81_n N_NET1_c_184_n 9.18655e-19
cc_82 N_VDD_c_123_p N_NET1_c_184_n 8.835e-19
cc_83 N_VDD_c_119_p N_NET1_c_184_n 0.00132057f
cc_84 N_VDD_c_125_p N_NET1_c_199_n 3.43419e-19
cc_85 N_VDD_c_126_p N_NET1_c_199_n 3.43419e-19
cc_86 N_VDD_c_82_n N_NET1_c_199_n 3.72199e-19
cc_87 N_VDD_c_83_n N_NET1_c_199_n 3.02646e-19
cc_88 N_VDD_c_91_n N_NET1_c_199_n 3.48267e-19
cc_89 N_VDD_c_130_p N_NET1_c_186_n 7.85476e-19
cc_90 N_VDD_c_73_n N_NET1_c_186_n 9.00704e-19
cc_91 N_VDD_c_81_n N_NET1_c_186_n 0.00168791f
cc_92 N_VDD_c_123_p N_NET1_c_186_n 0.00355804f
cc_93 N_VDD_c_119_p N_NET1_c_186_n 8.835e-19
cc_94 N_VDD_c_125_p N_NET1_c_189_n 3.48267e-19
cc_95 N_VDD_c_126_p N_NET1_c_189_n 3.48267e-19
cc_96 N_VDD_c_82_n N_NET1_c_189_n 8.08807e-19
cc_97 N_VDD_c_83_n N_NET1_c_189_n 4.24175e-19
cc_98 N_VDD_c_91_n N_NET1_c_189_n 7.1497e-19
cc_99 N_VDD_c_130_p N_NET1_c_190_n 3.97408e-19
cc_100 N_VDD_c_126_p N_NET1_c_190_n 2.52932e-19
cc_101 N_VDD_c_123_p N_NET1_c_190_n 0.001476f
cc_102 N_VDD_c_91_n N_NET1_c_190_n 5.44012e-19
cc_103 N_VDD_c_119_p N_NET1_c_190_n 0.00114101f
cc_104 N_VDD_XI5.X0_PGD N_B_XI5.X0_PGS 0.00153355f
cc_105 N_VDD_c_73_n N_B_XI5.X0_PGS 7.45044e-19
cc_106 N_VDD_c_81_n N_B_XI5.X0_PGS 3.02077e-19
cc_107 N_VDD_c_148_p N_B_c_234_n 0.00419437f
cc_108 N_VDD_c_119_p N_B_c_241_n 7.17663e-19
cc_109 N_VDD_c_126_p N_Z_c_260_n 3.43419e-19
cc_110 N_VDD_c_91_n N_Z_c_260_n 3.48267e-19
cc_111 N_VDD_c_98_n N_Z_c_260_n 3.02646e-19
cc_112 N_VDD_c_126_p Z 3.48267e-19
cc_113 N_VDD_c_91_n Z 7.09569e-19
cc_114 N_VDD_c_98_n Z 4.04319e-19
cc_115 N_A_c_157_n N_NET1_c_186_n 0.00799902f
cc_116 N_A_c_167_n N_NET1_c_186_n 8.66889e-19
cc_117 N_A_c_160_n N_NET1_c_189_n 9.68342e-19
cc_118 N_A_XI5.X0_CG N_B_XI5.X0_PGS 4.87172e-19
cc_119 N_A_c_157_n N_B_XI5.X0_PGS 4.74011e-19
cc_120 N_A_c_167_n N_B_XI5.X0_PGS 5.6636e-19
cc_121 N_A_c_157_n N_B_c_234_n 2.0632e-19
cc_122 N_A_c_167_n N_B_c_234_n 7.2846e-19
cc_123 N_A_c_160_n N_B_c_234_n 0.00228839f
cc_124 N_A_c_160_n N_B_c_241_n 9.27569e-19
cc_125 N_NET1_c_199_n N_B_c_234_n 3.74089e-19
cc_126 N_NET1_c_189_n N_B_c_234_n 3.943e-19
cc_127 N_NET1_c_190_n N_B_c_234_n 2.82146e-19
cc_128 N_NET1_c_189_n N_B_c_241_n 0.00116203f
cc_129 N_NET1_c_190_n N_B_c_241_n 5.60175e-19
cc_130 N_NET1_c_191_n N_B_c_241_n 3.86148e-19
cc_131 N_NET1_c_193_n N_B_c_241_n 0.00196155f
cc_132 N_NET1_c_189_n B 0.00147455f
cc_133 N_NET1_c_190_n B 8.26881e-19
cc_134 N_NET1_c_191_n B 5.75904e-19
cc_135 N_NET1_c_193_n B 3.48267e-19
cc_136 N_NET1_c_182_n N_Z_c_260_n 6.55689e-19
*
.ends
*
*
.subckt AND2_HPNW8 A B Y VDD VSS
xgate (VSS VDD A B Y) G3_AND2_N2
.ends
*
* File: G2_AOI21_N2.pex.netlist
* Created: Mon Apr 11 18:40:10 2022
* Program "Calibre xRC"
* Version "v2021.2_37.20"
*
.subckt PM_G2_AOI21_N2_VSS 2 4 6 8 19 30 35 38 43 48 57 66 67 69 77 78 79 84 86
+ 88 89 Vss
c51 89 Vss 4.28045e-19
c52 86 Vss 0.00486026f
c53 84 Vss 0.00155386f
c54 79 Vss 0.00128356f
c55 78 Vss 4.65637e-19
c56 77 Vss 0.00250049f
c57 69 Vss 0.00102564f
c58 67 Vss 0.00986383f
c59 66 Vss 0.00273179f
c60 65 Vss 0.00133186f
c61 57 Vss 0.00579208f
c62 48 Vss 2.73256e-19
c63 43 Vss 0.00178422f
c64 38 Vss 0.00142279f
c65 35 Vss 0.00389683f
c66 30 Vss 0.00549227f
c67 25 Vss 0.0828998f
c68 19 Vss 0.0350566f
c69 18 Vss 0.0688416f
c70 8 Vss 0.135691f
c71 4 Vss 0.134006f
r72 85 89 0.551426
r73 85 86 15.5878
r74 84 89 0.551426
r75 83 84 4.58464
r76 79 89 0.0828784
r77 77 86 0.652036
r78 77 78 4.33457
r79 73 78 0.652036
r80 68 88 0.326018
r81 67 83 0.652036
r82 67 68 15.6711
r83 66 69 0.655813
r84 65 88 0.326018
r85 65 66 4.58464
r86 48 79 1.82344
r87 43 57 1.16709
r88 43 73 2.16729
r89 38 69 1.82344
r90 35 48 1.16709
r91 30 38 1.16709
r92 25 57 0.0476429
r93 23 25 2.04225
r94 20 23 0.0685365
r95 18 23 0.5835
r96 18 19 2.8008
r97 15 19 0.652036
r98 8 20 3.8511
r99 6 35 0.185659
r100 4 15 3.8511
r101 2 30 0.185659
.ends

.subckt PM_G2_AOI21_N2_VDD 2 4 6 8 10 29 37 42 45 46 48 50 54 56 57 58 62 63 65
+ 67 68 74 Vss
c58 74 Vss 0.00462133f
c59 68 Vss 4.52364e-19
c60 65 Vss 0.00203839f
c61 63 Vss 0.00821501f
c62 62 Vss 8.61193e-19
c63 58 Vss 0.00179763f
c64 57 Vss 6.04409e-19
c65 56 Vss 0.00220637f
c66 54 Vss 0.00139836f
c67 51 Vss 0.00169975f
c68 50 Vss 0.0126653f
c69 48 Vss 0.00162243f
c70 46 Vss 0.00140335f
c71 45 Vss 0.00324454f
c72 42 Vss 0.00402078f
c73 37 Vss 0.00544429f
c74 33 Vss 0.0307649f
c75 29 Vss 1.05042e-19
c76 26 Vss 0.101606f
c77 22 Vss 0.035898f
c78 21 Vss 0.0712517f
c79 8 Vss 0.135377f
c80 6 Vss 0.136126f
c81 2 Vss 0.135008f
r82 64 68 0.551426
r83 64 65 4.58464
r84 63 68 0.551426
r85 62 67 0.326018
r86 62 63 15.5878
r87 58 68 0.0828784
r88 58 60 1.82344
r89 56 67 0.326018
r90 56 57 4.37625
r91 54 74 1.16709
r92 52 57 0.652036
r93 52 54 2.16729
r94 50 65 0.652036
r95 50 51 15.7128
r96 46 48 1.85991
r97 45 51 0.652036
r98 44 46 0.655813
r99 44 45 4.58464
r100 42 60 1.16709
r101 37 48 1.16709
r102 29 74 0.0476429
r103 27 33 0.494161
r104 27 29 1.45875
r105 26 30 0.652036
r106 26 29 1.45875
r107 23 33 0.128424
r108 21 33 0.494161
r109 21 22 2.8008
r110 18 22 0.652036
r111 10 42 0.185659
r112 8 30 3.8511
r113 6 23 3.8511
r114 4 37 0.185659
r115 2 18 3.8511
.ends

.subckt PM_G2_AOI21_N2_B 2 4 20 25 28 Vss
c17 28 Vss 0.00498247f
c18 25 Vss 6.10536e-19
c19 20 Vss 0.0915067f
c20 16 Vss 0.0598477f
c21 4 Vss 0.157143f
c22 2 Vss 0.372582f
r23 25 28 1.16709
r24 18 20 2.04225
r25 16 28 0.197068
r26 13 16 1.2837
r27 10 20 0.0685365
r28 8 18 0.0685365
r29 7 13 0.0685365
r30 4 10 4.3179
r31 2 8 9.9195
r32 2 7 3.8511
.ends

.subckt PM_G2_AOI21_N2_C 2 4 6 17 24 28 31 34 38 43 56 Vss
c46 56 Vss 0.00123749f
c47 43 Vss 0.0052622f
c48 38 Vss 0.00284502f
c49 34 Vss 0.00609886f
c50 28 Vss 0.0947914f
c51 24 Vss 0.0843207f
c52 17 Vss 3.53906e-19
c53 6 Vss 0.232307f
c54 4 Vss 0.201668f
c55 2 Vss 0.134559f
r56 52 56 0.652036
r57 38 56 5.16814
r58 34 43 1.16709
r59 34 52 10.4196
r60 31 34 0.145875
r61 26 28 2.04225
r62 24 43 0.0476429
r63 21 24 1.92555
r64 18 28 0.0685365
r65 17 38 1.16709
r66 13 26 0.0685365
r67 13 17 2.8008
r68 10 21 0.0685365
r69 6 18 7.1187
r70 4 17 4.3179
r71 2 10 3.8511
.ends

.subckt PM_G2_AOI21_N2_Z 2 4 6 8 23 27 30 33 Vss
c32 30 Vss 0.00256251f
c33 27 Vss 0.00470045f
c34 23 Vss 0.00695334f
c35 8 Vss 0.00143442f
c36 6 Vss 0.00143442f
r37 33 35 7.002
r38 30 33 4.00114
r39 27 35 1.16709
r40 23 30 1.16709
r41 8 27 0.185659
r42 6 23 0.185659
r43 4 27 0.185659
r44 2 23 0.185659
.ends

.subckt PM_G2_AOI21_N2_A 2 4 10 11 13 14 15 20 24 29 32 Vss
c34 32 Vss 9.11501e-19
c35 29 Vss 4.23286e-19
c36 24 Vss 1.80739e-19
c37 20 Vss 0.136821f
c38 18 Vss 0.0247918f
c39 15 Vss 0.0322409f
c40 14 Vss 0.0730777f
c41 13 Vss 0.0312529f
c42 11 Vss 0.0324953f
c43 10 Vss 0.122088f
c44 2 Vss 0.238343f
r45 26 32 1.16709
r46 26 29 0.0729375
r47 24 32 0.262036
r48 20 32 0.238214
r49 18 24 0.326018
r50 18 20 0.64185
r51 15 24 2.50905
r52 14 24 0.326018
r53 14 24 0.1167
r54 13 15 0.652036
r55 12 13 1.22535
r56 10 12 0.652036
r57 10 11 3.09255
r58 7 11 0.652036
r59 4 20 3.7344
r60 2 7 7.4688
.ends

.subckt G2_AOI21_N2  VSS VDD B C Z A
*
* A	A
* Z	Z
* C	C
* B	B
* VDD	VDD
* VSS	VSS
XI14.X0 N_Z_XI14.X0_D N_VDD_XI14.X0_PGD N_A_XI14.X0_CG N_B_XI14.X0_PGS
+ N_VSS_XI14.X0_S TIGFET_HPNW8
XI12.X0 N_Z_XI12.X0_D N_VSS_XI12.X0_PGD N_B_XI12.X0_CG N_C_XI12.X0_PGS
+ N_VDD_XI12.X0_S TIGFET_HPNW8
XI15.X0 N_Z_XI15.X0_D N_VDD_XI15.X0_PGD N_C_XI15.X0_CG N_VDD_XI15.X0_PGS
+ N_VSS_XI15.X0_S TIGFET_HPNW8
XI13.X0 N_Z_XI13.X0_D N_VSS_XI13.X0_PGD N_A_XI13.X0_CG N_C_XI13.X0_PGS
+ N_VDD_XI13.X0_S TIGFET_HPNW8
*
x_PM_G2_AOI21_N2_VSS N_VSS_XI14.X0_S N_VSS_XI12.X0_PGD N_VSS_XI15.X0_S
+ N_VSS_XI13.X0_PGD N_VSS_c_3_p N_VSS_c_35_p N_VSS_c_8_p N_VSS_c_2_p N_VSS_c_4_p
+ N_VSS_c_9_p N_VSS_c_5_p N_VSS_c_22_p N_VSS_c_10_p N_VSS_c_1_p N_VSS_c_6_p
+ N_VSS_c_7_p N_VSS_c_12_p N_VSS_c_15_p N_VSS_c_16_p VSS N_VSS_c_17_p Vss
+ PM_G2_AOI21_N2_VSS
x_PM_G2_AOI21_N2_VDD N_VDD_XI14.X0_PGD N_VDD_XI12.X0_S N_VDD_XI15.X0_PGD
+ N_VDD_XI15.X0_PGS N_VDD_XI13.X0_S N_VDD_c_80_p N_VDD_c_95_p N_VDD_c_96_p
+ N_VDD_c_79_p N_VDD_c_52_n N_VDD_c_53_n N_VDD_c_54_n N_VDD_c_74_p N_VDD_c_59_n
+ N_VDD_c_62_n N_VDD_c_63_n N_VDD_c_64_n N_VDD_c_65_n N_VDD_c_69_n VDD
+ N_VDD_c_72_n N_VDD_c_75_p Vss PM_G2_AOI21_N2_VDD
x_PM_G2_AOI21_N2_B N_B_XI14.X0_PGS N_B_XI12.X0_CG N_B_c_118_p B N_B_c_115_n Vss
+ PM_G2_AOI21_N2_B
x_PM_G2_AOI21_N2_C N_C_XI12.X0_PGS N_C_XI15.X0_CG N_C_XI13.X0_PGS N_C_c_139_n
+ N_C_c_142_n N_C_c_143_n C N_C_c_128_n N_C_c_131_n N_C_c_132_n N_C_c_136_n Vss
+ PM_G2_AOI21_N2_C
x_PM_G2_AOI21_N2_Z N_Z_XI14.X0_D N_Z_XI12.X0_D N_Z_XI15.X0_D N_Z_XI13.X0_D
+ N_Z_c_173_n N_Z_c_183_n N_Z_c_177_n Z Vss PM_G2_AOI21_N2_Z
x_PM_G2_AOI21_N2_A N_A_XI14.X0_CG N_A_XI13.X0_CG N_A_c_205_n N_A_c_217_n
+ N_A_c_218_n N_A_c_206_n N_A_c_219_n N_A_c_225_n N_A_c_207_n A N_A_c_210_n Vss
+ PM_G2_AOI21_N2_A
cc_1 N_VSS_c_1_p N_VDD_c_52_n 3.73937e-19
cc_2 N_VSS_c_2_p N_VDD_c_53_n 5.43852e-19
cc_3 N_VSS_c_3_p N_VDD_c_54_n 0.0012732f
cc_4 N_VSS_c_4_p N_VDD_c_54_n 0.00161703f
cc_5 N_VSS_c_5_p N_VDD_c_54_n 2.26455e-19
cc_6 N_VSS_c_6_p N_VDD_c_54_n 0.00447304f
cc_7 N_VSS_c_7_p N_VDD_c_54_n 0.00169823f
cc_8 N_VSS_c_8_p N_VDD_c_59_n 3.4118e-19
cc_9 N_VSS_c_9_p N_VDD_c_59_n 4.19648e-19
cc_10 N_VSS_c_10_p N_VDD_c_59_n 0.00353938f
cc_11 N_VSS_c_10_p N_VDD_c_62_n 0.00161744f
cc_12 N_VSS_c_12_p N_VDD_c_63_n 4.54377e-19
cc_13 N_VSS_c_10_p N_VDD_c_64_n 0.00106833f
cc_14 N_VSS_c_9_p N_VDD_c_65_n 0.00187494f
cc_15 N_VSS_c_15_p N_VDD_c_65_n 0.00340036f
cc_16 N_VSS_c_16_p N_VDD_c_65_n 0.00745699f
cc_17 N_VSS_c_17_p N_VDD_c_65_n 9.16632e-19
cc_18 N_VSS_c_4_p N_VDD_c_69_n 4.42007e-19
cc_19 N_VSS_c_5_p N_VDD_c_69_n 4.06699e-19
cc_20 N_VSS_c_16_p N_VDD_c_69_n 0.00303867f
cc_21 N_VSS_c_16_p N_VDD_c_72_n 0.00115015f
cc_22 N_VSS_c_22_p B 3.69138e-19
cc_23 N_VSS_c_10_p B 3.52052e-19
cc_24 N_VSS_XI12.X0_PGD N_C_XI12.X0_PGS 0.00151939f
cc_25 N_VSS_c_4_p N_C_c_128_n 8.90801e-19
cc_26 N_VSS_c_5_p N_C_c_128_n 3.44698e-19
cc_27 N_VSS_c_16_p N_C_c_128_n 0.00169235f
cc_28 N_VSS_c_16_p N_C_c_131_n 5.11302e-19
cc_29 N_VSS_XI12.X0_PGD N_C_c_132_n 3.23173e-19
cc_30 N_VSS_c_3_p N_C_c_132_n 0.00480946f
cc_31 N_VSS_c_4_p N_C_c_132_n 3.44698e-19
cc_32 N_VSS_c_5_p N_C_c_132_n 6.61756e-19
cc_33 N_VSS_c_10_p N_C_c_136_n 0.00251881f
cc_34 N_VSS_c_16_p N_C_c_136_n 3.90377e-19
cc_35 N_VSS_c_35_p N_Z_c_173_n 3.43419e-19
cc_36 N_VSS_c_8_p N_Z_c_173_n 3.43419e-19
cc_37 N_VSS_c_2_p N_Z_c_173_n 3.48267e-19
cc_38 N_VSS_c_9_p N_Z_c_173_n 3.48267e-19
cc_39 N_VSS_c_35_p N_Z_c_177_n 3.48267e-19
cc_40 N_VSS_c_8_p N_Z_c_177_n 3.48267e-19
cc_41 N_VSS_c_2_p N_Z_c_177_n 5.71987e-19
cc_42 N_VSS_c_9_p N_Z_c_177_n 5.71987e-19
cc_43 N_VSS_c_10_p N_Z_c_177_n 3.08274e-19
cc_44 N_VSS_c_16_p N_Z_c_177_n 7.49935e-19
cc_45 N_VSS_XI12.X0_PGD N_A_c_205_n 7.49544e-19
cc_46 N_VSS_XI13.X0_PGD N_A_c_206_n 0.00161855f
cc_47 N_VSS_c_5_p N_A_c_207_n 9.11194e-19
cc_48 N_VSS_c_4_p A 3.22909e-19
cc_49 N_VSS_c_5_p A 3.2351e-19
cc_50 N_VSS_c_4_p N_A_c_210_n 3.2351e-19
cc_51 N_VSS_c_5_p N_A_c_210_n 2.68747e-19
cc_52 N_VDD_XI14.X0_PGD N_B_XI14.X0_PGS 0.00174385f
cc_53 N_VDD_c_74_p B 6.29947e-19
cc_54 N_VDD_c_75_p B 3.48267e-19
cc_55 N_VDD_XI14.X0_PGD N_B_c_115_n 3.23173e-19
cc_56 N_VDD_c_74_p N_B_c_115_n 4.44903e-19
cc_57 N_VDD_c_75_p N_B_c_115_n 6.39485e-19
cc_58 N_VDD_c_79_p N_C_XI12.X0_PGS 2.86849e-19
cc_59 N_VDD_c_80_p N_C_c_139_n 9.37804e-19
cc_60 N_VDD_c_65_n N_C_c_139_n 5.88901e-19
cc_61 N_VDD_c_75_p N_C_c_139_n 2.68747e-19
cc_62 N_VDD_c_54_n N_C_c_142_n 3.8224e-19
cc_63 N_VDD_XI15.X0_PGS N_C_c_143_n 8.15793e-19
cc_64 N_VDD_c_65_n N_C_c_143_n 5.55843e-19
cc_65 N_VDD_c_79_p N_C_c_128_n 9.5543e-19
cc_66 N_VDD_c_53_n N_C_c_128_n 4.34676e-19
cc_67 N_VDD_c_54_n N_C_c_128_n 0.00198126f
cc_68 N_VDD_c_54_n N_C_c_131_n 6.31729e-19
cc_69 N_VDD_c_74_p N_C_c_131_n 4.21038e-19
cc_70 N_VDD_c_65_n N_C_c_131_n 4.49702e-19
cc_71 N_VDD_c_75_p N_C_c_131_n 3.2351e-19
cc_72 N_VDD_c_79_p N_C_c_132_n 3.63088e-19
cc_73 N_VDD_c_54_n N_C_c_132_n 2.64932e-19
cc_74 N_VDD_c_95_p N_Z_c_183_n 3.43419e-19
cc_75 N_VDD_c_96_p N_Z_c_183_n 3.43419e-19
cc_76 N_VDD_c_53_n N_Z_c_183_n 3.72424e-19
cc_77 N_VDD_c_54_n N_Z_c_183_n 3.4118e-19
cc_78 N_VDD_c_63_n N_Z_c_183_n 3.72199e-19
cc_79 N_VDD_c_95_p N_Z_c_177_n 3.48267e-19
cc_80 N_VDD_c_96_p N_Z_c_177_n 3.48267e-19
cc_81 N_VDD_c_53_n N_Z_c_177_n 5.09689e-19
cc_82 N_VDD_c_54_n N_Z_c_177_n 6.43655e-19
cc_83 N_VDD_c_63_n N_Z_c_177_n 7.72285e-19
cc_84 N_VDD_c_65_n N_Z_c_177_n 0.00139834f
cc_85 N_VDD_XI14.X0_PGD N_A_c_205_n 6.23873e-19
cc_86 N_VDD_XI15.X0_PGD N_A_c_206_n 3.69557e-19
cc_87 N_VDD_c_65_n A 4.8807e-19
cc_88 N_VDD_c_65_n N_A_c_210_n 3.66936e-19
cc_89 N_B_c_118_p N_C_XI12.X0_PGS 0.00196296f
cc_90 N_B_XI14.X0_PGS N_C_XI15.X0_CG 2.46172e-19
cc_91 N_B_c_118_p N_C_XI13.X0_PGS 4.66827e-19
cc_92 N_B_XI14.X0_PGS N_Z_c_177_n 2.61881e-19
cc_93 N_B_XI14.X0_PGS N_A_XI14.X0_CG 0.00881601f
cc_94 N_B_c_118_p N_A_c_217_n 0.00188162f
cc_95 N_B_XI14.X0_PGS N_A_c_218_n 6.07734e-19
cc_96 N_B_c_118_p N_A_c_219_n 0.00136534f
cc_97 N_B_c_118_p N_A_c_210_n 2.87722e-19
cc_98 N_C_c_139_n N_Z_c_177_n 9.83688e-19
cc_99 N_C_c_128_n N_Z_c_177_n 0.00274829f
cc_100 N_C_c_131_n N_Z_c_177_n 0.00329442f
cc_101 N_C_c_136_n N_Z_c_177_n 2.70867e-19
cc_102 N_C_XI15.X0_CG N_A_XI14.X0_CG 5.48933e-19
cc_103 N_C_c_139_n N_A_XI14.X0_CG 5.60239e-19
cc_104 N_C_XI13.X0_PGS N_A_c_205_n 8.10159e-19
cc_105 N_C_c_143_n N_A_c_205_n 0.00121323f
cc_106 N_C_XI13.X0_PGS N_A_c_225_n 4.5346e-19
cc_107 N_C_c_139_n N_A_c_207_n 9.47282e-19
cc_108 N_C_c_139_n A 4.56568e-19
cc_109 N_C_c_131_n A 6.34188e-19
cc_110 N_C_XI13.X0_PGS N_A_c_210_n 0.00570455f
cc_111 N_C_c_139_n N_A_c_210_n 6.1245e-19
cc_112 N_C_c_143_n N_A_c_210_n 0.00148932f
cc_113 N_C_c_131_n N_A_c_210_n 4.56568e-19
cc_114 N_Z_c_177_n N_A_XI14.X0_CG 5.52516e-19
cc_115 N_Z_c_173_n N_A_c_205_n 3.52706e-19
cc_116 N_Z_c_177_n N_A_c_205_n 3.09083e-19
cc_117 N_Z_c_183_n N_A_c_219_n 5.59623e-19
cc_118 N_Z_c_177_n A 0.00149422f
cc_119 N_Z_c_177_n N_A_c_210_n 9.63126e-19
*
.ends
*
*
.subckt AOI21_HPNW8 A0 A1 B0 Y VDD VSS
xgate (VSS VDD A1 B0 Y A0) G2_AOI21_N2
.ends
*
* File: G2_BUF1_N2.pex.netlist
* Created: Wed Mar  2 15:38:39 2022
* Program "Calibre xRC"
* Version "v2021.2_37.20"
*
.subckt PM_G2_BUF1_N2_VDD 2 4 7 11 28 30 32 44 48 52 54 56 57 61 65 67 71 75 78
+ 90 95 Vss
c59 95 Vss 0.0047576f
c60 90 Vss 0.00460635f
c61 80 Vss 9.22237e-19
c62 79 Vss 9.22237e-19
c63 75 Vss 0.00103298f
c64 71 Vss 9.84953e-19
c65 68 Vss 0.001766f
c66 67 Vss 0.0073616f
c67 65 Vss 0.00118372f
c68 61 Vss 0.00118372f
c69 57 Vss 0.00729501f
c70 56 Vss 0.0034296f
c71 54 Vss 0.00566164f
c72 52 Vss 0.0034296f
c73 51 Vss 0.001766f
c74 48 Vss 0.00382489f
c75 44 Vss 0.00532438f
c76 32 Vss 0.035607f
c77 31 Vss 0.102409f
c78 28 Vss 0.035607f
c79 27 Vss 0.102409f
c80 11 Vss 0.270897f
c81 7 Vss 0.270897f
r82 75 95 1.16709
r83 73 75 2.16729
r84 71 90 1.16709
r85 69 71 2.16729
r86 67 73 0.652036
r87 67 68 10.1279
r88 63 80 0.0828784
r89 63 65 1.82344
r90 59 79 0.0828784
r91 59 61 1.82344
r92 58 78 0.326018
r93 57 69 0.652036
r94 57 58 10.1279
r95 56 68 0.652036
r96 55 80 0.551426
r97 55 56 4.58464
r98 54 80 0.551426
r99 53 79 0.551426
r100 53 54 6.75193
r101 52 79 0.551426
r102 51 78 0.326018
r103 51 52 4.58464
r104 48 65 1.16709
r105 44 61 1.16709
r106 34 95 0.0476429
r107 32 34 1.45875
r108 31 38 0.652036
r109 31 34 1.45875
r110 30 90 0.0476429
r111 28 30 1.45875
r112 27 35 0.652036
r113 27 30 1.45875
r114 24 32 0.652036
r115 21 28 0.652036
r116 11 38 3.8511
r117 11 24 3.8511
r118 7 35 3.8511
r119 7 21 3.8511
r120 4 48 0.185659
r121 2 44 0.185659
.ends

.subckt PM_G2_BUF1_N2_VSS 3 7 10 12 27 28 30 31 32 45 49 52 57 62 67 72 77 97 98
+ 99 100 101 105 110 112 114 118 Vss
c56 116 Vss 6.78504e-19
c57 115 Vss 6.78504e-19
c58 114 Vss 0.00409661f
c59 112 Vss 0.00423582f
c60 110 Vss 0.0027381f
c61 105 Vss 0.0010217f
c62 101 Vss 8.62361e-19
c63 100 Vss 5.83649e-19
c64 99 Vss 0.00516968f
c65 98 Vss 5.83649e-19
c66 97 Vss 0.00631668f
c67 77 Vss 0.00400078f
c68 72 Vss 0.00410051f
c69 67 Vss 1.62518e-19
c70 62 Vss 7.10513e-22
c71 57 Vss 8.03422e-19
c72 52 Vss 9.77866e-19
c73 49 Vss 0.00537236f
c74 45 Vss 0.00387287f
c75 32 Vss 0.0350852f
c76 31 Vss 0.0994129f
c77 28 Vss 0.0350852f
c78 27 Vss 0.0994129f
c79 7 Vss 0.268864f
c80 3 Vss 0.268864f
r81 114 118 0.326018
r82 113 116 0.551426
r83 113 114 4.58464
r84 112 116 0.551426
r85 111 115 0.551426
r86 111 112 6.75193
r87 110 115 0.551426
r88 109 110 4.58464
r89 105 116 0.0828784
r90 101 115 0.0828784
r91 99 118 0.326018
r92 99 100 10.1279
r93 97 109 0.652036
r94 97 98 10.1279
r95 93 100 0.652036
r96 89 98 0.652036
r97 67 105 1.82344
r98 62 101 1.82344
r99 57 77 1.16709
r100 57 93 2.16729
r101 52 72 1.16709
r102 52 89 2.16729
r103 49 67 1.16709
r104 45 62 1.16709
r105 34 77 0.0476429
r106 32 34 1.45875
r107 31 38 0.652036
r108 31 34 1.45875
r109 30 72 0.0476429
r110 28 30 1.45875
r111 27 35 0.652036
r112 27 30 1.45875
r113 24 32 0.652036
r114 21 28 0.652036
r115 12 49 0.185659
r116 10 45 0.185659
r117 7 38 3.8511
r118 7 24 3.8511
r119 3 35 3.8511
r120 3 21 3.8511
.ends

.subckt PM_G2_BUF1_N2_A 2 4 12 22 28 Vss
c16 28 Vss 0.00294568f
c17 22 Vss 4.01518e-19
c18 12 Vss 0.200588f
c19 9 Vss 0.126125f
c20 7 Vss 0.0247918f
c21 4 Vss 0.139046f
r22 25 28 1.16709
r23 22 25 0.0416786
r24 15 28 0.0476429
r25 13 15 0.326018
r26 13 15 0.1167
r27 12 16 0.652036
r28 12 15 6.7686
r29 9 28 0.357321
r30 7 15 0.326018
r31 7 9 0.40845
r32 4 16 3.8511
r33 2 9 3.44265
.ends

.subckt PM_G2_BUF1_N2_Z 2 4 13 18 Vss
c14 18 Vss 4.84617e-19
c15 13 Vss 0.00522706f
c16 4 Vss 0.00176567f
r17 13 18 1.16709
r18 4 13 0.185659
r19 2 13 0.185659
.ends

.subckt PM_G2_BUF1_N2_NET17 2 4 6 8 18 33 36 41 50 58 Vss
c37 58 Vss 6.57973e-19
c38 50 Vss 0.00325633f
c39 41 Vss 0.00142824f
c40 36 Vss 0.00169654f
c41 33 Vss 0.00522706f
c42 22 Vss 0.0247918f
c43 19 Vss 0.0299669f
c44 18 Vss 0.169609f
c45 8 Vss 0.00176567f
c46 6 Vss 0.126125f
c47 2 Vss 0.138383f
r48 54 58 0.653045
r49 41 50 1.16709
r50 41 58 2.1395
r51 36 54 4.37625
r52 33 36 1.16709
r53 28 50 0.0476429
r54 26 50 0.357321
r55 22 28 0.326018
r56 22 26 0.40845
r57 19 28 6.7686
r58 18 28 0.326018
r59 18 28 0.1167
r60 15 19 0.652036
r61 8 33 0.185659
r62 6 26 3.44265
r63 4 33 0.185659
r64 2 15 3.8511
.ends

.subckt G2_BUF1_N2  VDD VSS A Z
*
* Z	Z
* A	A
* VSS	VSS
* VDD	VDD
XI10.X0 N_Z_XI10.X0_D N_VSS_XI10.X0_PGD N_NET17_XI10.X0_CG N_VSS_XI10.X0_PGD
+ N_VDD_XI10.X0_S TIGFET_HPNW8
XI7.X0 N_NET17_XI7.X0_D N_VSS_XI7.X0_PGD N_A_XI7.X0_CG N_VSS_XI7.X0_PGD
+ N_VDD_XI7.X0_S TIGFET_HPNW8
XI9.X0 N_Z_XI9.X0_D N_VDD_XI9.X0_PGD N_NET17_XI9.X0_CG N_VDD_XI9.X0_PGD
+ N_VSS_XI9.X0_S TIGFET_HPNW8
XI8.X0 N_NET17_XI8.X0_D N_VDD_XI8.X0_PGD N_A_XI8.X0_CG N_VDD_XI8.X0_PGD
+ N_VSS_XI8.X0_S TIGFET_HPNW8
*
x_PM_G2_BUF1_N2_VDD N_VDD_XI10.X0_S N_VDD_XI7.X0_S N_VDD_XI9.X0_PGD
+ N_VDD_XI8.X0_PGD N_VDD_c_4_p N_VDD_c_50_p N_VDD_c_8_p N_VDD_c_36_p
+ N_VDD_c_45_p N_VDD_c_6_p N_VDD_c_34_p N_VDD_c_3_p N_VDD_c_5_p N_VDD_c_38_p
+ N_VDD_c_46_p N_VDD_c_9_p N_VDD_c_13_p N_VDD_c_17_p VDD N_VDD_c_14_p
+ N_VDD_c_18_p Vss PM_G2_BUF1_N2_VDD
x_PM_G2_BUF1_N2_VSS N_VSS_XI10.X0_PGD N_VSS_XI7.X0_PGD N_VSS_XI9.X0_S
+ N_VSS_XI8.X0_S N_VSS_c_63_n N_VSS_c_65_n N_VSS_c_93_p N_VSS_c_67_n
+ N_VSS_c_69_n N_VSS_c_100_p N_VSS_c_106_p N_VSS_c_70_n N_VSS_c_74_n
+ N_VSS_c_101_p N_VSS_c_107_p N_VSS_c_78_n N_VSS_c_82_n N_VSS_c_85_n
+ N_VSS_c_86_n N_VSS_c_87_n N_VSS_c_88_n N_VSS_c_103_p N_VSS_c_110_p
+ N_VSS_c_89_n N_VSS_c_111_p N_VSS_c_90_n VSS Vss PM_G2_BUF1_N2_VSS