* sclib_tigfet10_hpnw12_tt_0p70v_25c.sp
.subckt TIGFET_HPNW12 D PGD CG PGS S
xgate (D PGD CG PGS S) TIGFET nw=12
.ends
*
* File: G3_AND2_N3.pex.netlist
* Created: Tue Mar  1 10:56:10 2022
* Program "Calibre xRC"
* Version "v2021.2_37.20"
*
.subckt PM_G3_AND2_N3_VSS 2 4 6 8 10 12 14 16 30 31 50 62 67 70 75 80 85 94 99
+ 108 109 113 114 119 125 127 132 133 134 136 Vss
c67 134 Vss 3.75522e-19
c68 133 Vss 3.62111e-19
c69 132 Vss 0.004799f
c70 127 Vss 0.00257088f
c71 125 Vss 0.00552282f
c72 119 Vss 0.00412002f
c73 114 Vss 8.41284e-19
c74 113 Vss 0.00175777f
c75 109 Vss 7.31223e-19
c76 108 Vss 0.00590165f
c77 99 Vss 0.00416928f
c78 94 Vss 0.00536429f
c79 85 Vss 7.10513e-22
c80 80 Vss 4.8997e-19
c81 75 Vss 0.00125499f
c82 70 Vss 0.00121927f
c83 67 Vss 0.0100822f
c84 62 Vss 0.00955849f
c85 58 Vss 0.0299311f
c86 57 Vss 0.0299311f
c87 51 Vss 0.0357161f
c88 50 Vss 0.0994129f
c89 42 Vss 0.107716f
c90 37 Vss 0.0688416f
c91 31 Vss 0.0350852f
c92 30 Vss 0.0646396f
c93 14 Vss 0.188821f
c94 12 Vss 0.189513f
c95 10 Vss 0.189371f
c96 8 Vss 0.190733f
c97 6 Vss 0.189919f
c98 4 Vss 0.190281f
c99 2 Vss 1.99696e-19
r100 132 136 0.326018
r101 131 132 5.50157
r102 127 131 0.655813
r103 126 134 0.494161
r104 125 136 0.326018
r105 125 126 10.1279
r106 121 134 0.128424
r107 120 133 0.494161
r108 119 134 0.494161
r109 119 120 10.378
r110 115 133 0.128424
r111 113 133 0.494161
r112 113 114 4.33457
r113 108 114 0.652036
r114 107 109 0.655813
r115 107 108 19.0471
r116 85 127 1.82344
r117 80 99 1.16709
r118 80 121 2.16729
r119 75 94 1.16709
r120 75 115 2.16729
r121 70 109 1.82344
r122 67 85 1.16709
r123 62 70 1.16709
r124 53 99 0.0476429
r125 51 53 1.45875
r126 50 54 0.652036
r127 50 53 1.45875
r128 47 51 0.652036
r129 43 58 0.494161
r130 42 44 0.652036
r131 42 43 2.9175
r132 39 58 0.128424
r133 38 57 0.494161
r134 37 58 0.494161
r135 37 38 2.8008
r136 34 57 0.128424
r137 33 94 0.0476429
r138 31 33 1.4004
r139 30 57 0.494161
r140 30 33 1.5171
r141 27 31 0.652036
r142 16 67 0.123773
r143 14 47 5.1348
r144 12 54 5.1348
r145 10 44 5.1348
r146 8 39 5.1348
r147 6 27 5.1348
r148 4 34 5.1348
r149 2 62 0.123773
.ends

.subckt PM_G3_AND2_N3_VDD 2 4 6 8 10 12 25 27 33 43 48 51 53 54 58 60 64 68 70
+ 74 76 78 79 85 94 Vss
c86 94 Vss 0.00463585f
c87 85 Vss 0.00402796f
c88 79 Vss 4.43941e-19
c89 76 Vss 4.52364e-19
c90 74 Vss 7.90245e-19
c91 70 Vss 0.00408718f
c92 68 Vss 0.00117255f
c93 64 Vss 0.00432275f
c94 60 Vss 0.00739867f
c95 58 Vss 0.00173558f
c96 55 Vss 0.00171371f
c97 54 Vss 0.0100369f
c98 53 Vss 0.00360598f
c99 51 Vss 0.00814794f
c100 48 Vss 0.00687623f
c101 43 Vss 0.00811526f
c102 33 Vss 0.0357902f
c103 32 Vss 0.102427f
c104 27 Vss 0.170038f
c105 25 Vss 0.0352365f
c106 12 Vss 0.190935f
c107 10 Vss 0.189512f
c108 8 Vss 0.00143493f
c109 2 Vss 0.221827f
r110 74 94 1.16709
r111 72 74 2.16729
r112 71 79 0.494161
r113 70 72 0.652036
r114 70 71 7.46046
r115 66 79 0.128424
r116 66 68 6.16843
r117 64 85 1.16709
r118 62 64 6.08507
r119 61 78 0.326018
r120 60 79 0.494161
r121 60 61 13.0037
r122 56 76 0.0828784
r123 56 58 1.82344
r124 54 62 0.652036
r125 54 55 10.0862
r126 53 78 0.326018
r127 52 76 0.551426
r128 52 53 5.50157
r129 51 76 0.551426
r130 50 55 0.652036
r131 50 51 15.046
r132 48 68 1.16709
r133 43 58 1.16709
r134 35 94 0.0476429
r135 33 35 1.45875
r136 32 36 0.652036
r137 32 35 1.45875
r138 29 33 0.652036
r139 27 85 0.428786
r140 25 27 5.3682
r141 22 25 0.652036
r142 12 36 5.1348
r143 10 29 5.1348
r144 8 48 0.123773
r145 6 48 0.123773
r146 4 43 0.123773
r147 2 22 6.3018
.ends

.subckt PM_G3_AND2_N3_A 1 2 9 20 23 28 33 Vss
c24 33 Vss 0.00369912f
c25 28 Vss 0.00225353f
c26 20 Vss 0.00104617f
c27 12 Vss 0.166756f
c28 1 Vss 0.171396f
r29 25 33 1.16709
r30 23 25 2.66743
r31 20 28 1.16709
r32 20 23 2.70911
r33 12 33 0.50025
r34 9 28 0.50025
r35 2 12 4.37625
r36 1 9 4.60965
.ends

.subckt PM_G3_AND2_N3_NET1 2 4 6 7 8 23 26 38 42 48 52 54 58 71 Vss
c52 71 Vss 0.00600165f
c53 60 Vss 2.11292e-19
c54 58 Vss 0.0011885f
c55 54 Vss 0.00636228f
c56 52 Vss 6.44544e-19
c57 48 Vss 8.20028e-19
c58 42 Vss 0.00560082f
c59 38 Vss 0.00901424f
c60 26 Vss 8.44333e-20
c61 23 Vss 0.229828f
c62 19 Vss 0.18045f
c63 17 Vss 0.0247918f
c64 8 Vss 0.193588f
c65 6 Vss 0.00143493f
r66 58 71 1.16709
r67 56 58 2.16729
r68 55 60 0.128424
r69 54 56 0.652036
r70 54 55 7.46046
r71 52 68 1.16709
r72 50 60 0.494161
r73 50 52 6.29346
r74 46 60 0.494161
r75 46 48 6.21011
r76 42 68 0.15
r77 38 48 1.16709
r78 26 71 0.0476429
r79 24 26 0.326018
r80 24 26 0.1167
r81 23 27 0.652036
r82 23 26 6.7686
r83 19 71 0.357321
r84 17 26 0.326018
r85 17 19 0.40845
r86 8 27 5.1348
r87 7 19 4.72635
r88 6 42 0.123773
r89 4 42 0.123773
r90 2 38 0.123773
.ends

.subckt PM_G3_AND2_N3_B 2 3 9 10 13 19 22 Vss
c26 19 Vss 2.97116e-19
c27 13 Vss 0.236449f
c28 10 Vss 0.0348969f
c29 9 Vss 0.287374f
c30 2 Vss 0.332764f
r31 19 22 0.0416786
r32 13 19 1.16709
r33 11 13 2.15895
r34 9 11 0.652036
r35 9 10 8.92755
r36 6 10 0.652036
r37 3 13 5.6016
r38 2 6 10.0362
.ends

.subckt PM_G3_AND2_N3_Z 2 4 13 16 Vss
c13 13 Vss 0.00498872f
c14 4 Vss 0.00143493f
r15 16 19 0.0416786
r16 13 19 1.16709
r17 4 13 0.123773
r18 2 13 0.123773
.ends

.subckt G3_AND2_N3  VSS VDD A B Z
*
* Z	Z
* B	B
* A	A
* VDD	VDD
* VSS	VSS
XI13.X0 N_NET1_XI13.X0_D N_VDD_XI13.X0_PGD N_A_XI13.X0_CG N_B_XI13.X0_PGS
+ N_VSS_XI13.X0_S TIGFET_HPNW12
XI15.X0 N_NET1_XI15.X0_D N_VSS_XI15.X0_PGD N_A_XI15.X0_CG N_VSS_XI15.X0_PGS
+ N_VDD_XI15.X0_S TIGFET_HPNW12
XI14.X0 N_NET1_XI14.X0_D N_VSS_XI14.X0_PGD N_B_XI14.X0_CG N_VSS_XI14.X0_PGS
+ N_VDD_XI14.X0_S TIGFET_HPNW12
XI12.X0 N_Z_XI12.X0_D N_VSS_XI12.X0_PGD N_NET1_XI12.X0_CG N_VSS_XI12.X0_PGS
+ N_VDD_XI12.X0_S TIGFET_HPNW12
XI11.X0 N_Z_XI11.X0_D N_VDD_XI11.X0_PGD N_NET1_XI11.X0_CG N_VDD_XI11.X0_PGS
+ N_VSS_XI11.X0_S TIGFET_HPNW12
*
x_PM_G3_AND2_N3_VSS N_VSS_XI13.X0_S N_VSS_XI15.X0_PGD N_VSS_XI15.X0_PGS
+ N_VSS_XI14.X0_PGD N_VSS_XI14.X0_PGS N_VSS_XI12.X0_PGD N_VSS_XI12.X0_PGS
+ N_VSS_XI11.X0_S N_VSS_c_14_p N_VSS_c_15_p N_VSS_c_2_p N_VSS_c_3_p N_VSS_c_62_p
+ N_VSS_c_4_p N_VSS_c_8_p N_VSS_c_24_p N_VSS_c_63_p N_VSS_c_9_p N_VSS_c_26_p
+ N_VSS_c_5_p N_VSS_c_6_p N_VSS_c_18_p N_VSS_c_11_p N_VSS_c_19_p N_VSS_c_33_p
+ N_VSS_c_67_p N_VSS_c_28_p N_VSS_c_20_p N_VSS_c_34_p VSS Vss PM_G3_AND2_N3_VSS
x_PM_G3_AND2_N3_VDD N_VDD_XI13.X0_PGD N_VDD_XI15.X0_S N_VDD_XI14.X0_S
+ N_VDD_XI12.X0_S N_VDD_XI11.X0_PGD N_VDD_XI11.X0_PGS N_VDD_c_146_p
+ N_VDD_c_128_p N_VDD_c_69_n N_VDD_c_122_p N_VDD_c_123_p N_VDD_c_70_n
+ N_VDD_c_74_n N_VDD_c_79_n N_VDD_c_80_n N_VDD_c_81_n N_VDD_c_121_p N_VDD_c_88_n
+ N_VDD_c_96_n N_VDD_c_102_n N_VDD_c_105_n VDD N_VDD_c_106_n N_VDD_c_117_p
+ N_VDD_c_107_n Vss PM_G3_AND2_N3_VDD
x_PM_G3_AND2_N3_A N_A_XI13.X0_CG N_A_XI15.X0_CG N_A_c_160_n N_A_c_154_n A
+ N_A_c_163_n N_A_c_156_n Vss PM_G3_AND2_N3_A
x_PM_G3_AND2_N3_NET1 N_NET1_XI13.X0_D N_NET1_XI15.X0_D N_NET1_XI14.X0_D
+ N_NET1_XI12.X0_CG N_NET1_XI11.X0_CG N_NET1_c_178_n N_NET1_c_179_n
+ N_NET1_c_180_n N_NET1_c_194_n N_NET1_c_182_n N_NET1_c_185_n N_NET1_c_186_n
+ N_NET1_c_188_n N_NET1_c_190_n Vss PM_G3_AND2_N3_NET1
x_PM_G3_AND2_N3_B N_B_XI13.X0_PGS N_B_XI14.X0_CG N_B_c_230_n N_B_c_232_n
+ N_B_c_237_n N_B_c_252_n B Vss PM_G3_AND2_N3_B
x_PM_G3_AND2_N3_Z N_Z_XI12.X0_D N_Z_XI11.X0_D N_Z_c_256_n Z Vss PM_G3_AND2_N3_Z
cc_1 N_VSS_XI12.X0_PGD N_VDD_XI11.X0_PGD 0.00195824f
cc_2 N_VSS_c_2_p N_VDD_c_69_n 0.00195824f
cc_3 N_VSS_c_3_p N_VDD_c_70_n 9.5668e-19
cc_4 N_VSS_c_4_p N_VDD_c_70_n 0.00165395f
cc_5 N_VSS_c_5_p N_VDD_c_70_n 0.00795264f
cc_6 N_VSS_c_6_p N_VDD_c_70_n 0.00190019f
cc_7 N_VSS_XI15.X0_PGS N_VDD_c_74_n 3.39564e-19
cc_8 N_VSS_c_8_p N_VDD_c_74_n 4.42007e-19
cc_9 N_VSS_c_9_p N_VDD_c_74_n 3.70842e-19
cc_10 N_VSS_c_5_p N_VDD_c_74_n 0.00357958f
cc_11 N_VSS_c_11_p N_VDD_c_74_n 0.00107567f
cc_12 N_VSS_c_4_p N_VDD_c_79_n 0.00237483f
cc_13 N_VSS_c_4_p N_VDD_c_80_n 3.67743e-19
cc_14 N_VSS_c_14_p N_VDD_c_81_n 0.00161328f
cc_15 N_VSS_c_15_p N_VDD_c_81_n 3.76573e-19
cc_16 N_VSS_c_8_p N_VDD_c_81_n 0.00161703f
cc_17 N_VSS_c_9_p N_VDD_c_81_n 2.26455e-19
cc_18 N_VSS_c_18_p N_VDD_c_81_n 0.00349492f
cc_19 N_VSS_c_19_p N_VDD_c_81_n 0.00593063f
cc_20 N_VSS_c_20_p N_VDD_c_81_n 7.61747e-19
cc_21 N_VSS_XI14.X0_PGS N_VDD_c_88_n 2.0368e-19
cc_22 N_VSS_XI12.X0_PGS N_VDD_c_88_n 2.24983e-19
cc_23 N_VSS_c_8_p N_VDD_c_88_n 6.58919e-19
cc_24 N_VSS_c_24_p N_VDD_c_88_n 0.0018079f
cc_25 N_VSS_c_9_p N_VDD_c_88_n 2.56577e-19
cc_26 N_VSS_c_26_p N_VDD_c_88_n 9.55109e-19
cc_27 N_VSS_c_5_p N_VDD_c_88_n 4.30333e-19
cc_28 N_VSS_c_28_p N_VDD_c_88_n 2.91233e-19
cc_29 N_VSS_c_2_p N_VDD_c_96_n 5.15102e-19
cc_30 N_VSS_c_24_p N_VDD_c_96_n 0.00161703f
cc_31 N_VSS_c_26_p N_VDD_c_96_n 2.26455e-19
cc_32 N_VSS_c_19_p N_VDD_c_96_n 0.00133474f
cc_33 N_VSS_c_33_p N_VDD_c_96_n 0.00600556f
cc_34 N_VSS_c_34_p N_VDD_c_96_n 7.74609e-19
cc_35 N_VSS_c_24_p N_VDD_c_102_n 8.50587e-19
cc_36 N_VSS_c_26_p N_VDD_c_102_n 3.82294e-19
cc_37 N_VSS_c_28_p N_VDD_c_102_n 3.85245e-19
cc_38 N_VSS_c_5_p N_VDD_c_105_n 0.00100712f
cc_39 N_VSS_c_19_p N_VDD_c_106_n 9.82771e-19
cc_40 N_VSS_c_24_p N_VDD_c_107_n 3.48267e-19
cc_41 N_VSS_c_26_p N_VDD_c_107_n 6.46219e-19
cc_42 N_VSS_c_9_p N_A_c_154_n 2.354e-19
cc_43 N_VSS_c_5_p N_A_c_154_n 0.00149458f
cc_44 N_VSS_c_8_p N_A_c_156_n 2.15082e-19
cc_45 N_VSS_c_9_p N_A_c_156_n 4.9359e-19
cc_46 N_VSS_XI12.X0_PGD N_NET1_c_178_n 4.31283e-19
cc_47 N_VSS_c_26_p N_NET1_c_179_n 5.28949e-19
cc_48 N_VSS_c_3_p N_NET1_c_180_n 3.43419e-19
cc_49 N_VSS_c_4_p N_NET1_c_180_n 3.48267e-19
cc_50 N_VSS_c_3_p N_NET1_c_182_n 3.48267e-19
cc_51 N_VSS_c_4_p N_NET1_c_182_n 8.50248e-19
cc_52 N_VSS_c_5_p N_NET1_c_182_n 8.95101e-19
cc_53 N_VSS_c_19_p N_NET1_c_185_n 2.278e-19
cc_54 N_VSS_XI14.X0_PGS N_NET1_c_186_n 2.25423e-19
cc_55 N_VSS_c_19_p N_NET1_c_186_n 4.57847e-19
cc_56 N_VSS_c_24_p N_NET1_c_188_n 2.00623e-19
cc_57 N_VSS_c_26_p N_NET1_c_188_n 2.28697e-19
cc_58 N_VSS_c_24_p N_NET1_c_190_n 2.15082e-19
cc_59 N_VSS_XI15.X0_PGD N_B_c_230_n 8.16475e-19
cc_60 N_VSS_XI14.X0_PGD N_B_c_230_n 8.16475e-19
cc_61 N_VSS_XI15.X0_PGS N_B_c_232_n 0.00101175f
cc_62 N_VSS_c_62_p N_Z_c_256_n 3.43419e-19
cc_63 N_VSS_c_63_p N_Z_c_256_n 3.48267e-19
cc_64 N_VSS_c_62_p Z 3.48267e-19
cc_65 N_VSS_c_63_p Z 4.99861e-19
cc_66 N_VSS_c_33_p Z 2.23989e-19
cc_67 N_VSS_c_67_p Z 2.7826e-19
cc_68 N_VDD_XI13.X0_PGD N_A_XI13.X0_CG 4.85665e-19
cc_69 N_VDD_c_79_n N_A_XI13.X0_CG 3.10124e-19
cc_70 N_VDD_c_79_n N_A_c_160_n 2.67445e-19
cc_71 N_VDD_c_70_n N_A_c_154_n 0.0028804f
cc_72 N_VDD_c_79_n N_A_c_154_n 4.70376e-19
cc_73 N_VDD_XI13.X0_PGD N_A_c_163_n 4.86892e-19
cc_74 N_VDD_c_70_n N_A_c_163_n 3.66936e-19
cc_75 N_VDD_c_79_n N_A_c_163_n 2.64879e-19
cc_76 N_VDD_c_117_p N_A_c_163_n 5.21476e-19
cc_77 N_VDD_c_70_n N_A_c_156_n 5.07754e-19
cc_78 N_VDD_XI11.X0_PGD N_NET1_c_178_n 4.31283e-19
cc_79 N_VDD_c_79_n N_NET1_c_180_n 0.0011619f
cc_80 N_VDD_c_121_p N_NET1_c_180_n 8.835e-19
cc_81 N_VDD_c_122_p N_NET1_c_194_n 3.43419e-19
cc_82 N_VDD_c_123_p N_NET1_c_194_n 3.43419e-19
cc_83 N_VDD_c_80_n N_NET1_c_194_n 3.72199e-19
cc_84 N_VDD_c_81_n N_NET1_c_194_n 2.82909e-19
cc_85 N_VDD_c_88_n N_NET1_c_194_n 3.48267e-19
cc_86 N_VDD_XI13.X0_PGD N_NET1_c_182_n 3.17068e-19
cc_87 N_VDD_c_128_p N_NET1_c_182_n 8.01918e-19
cc_88 N_VDD_c_70_n N_NET1_c_182_n 0.00133415f
cc_89 N_VDD_c_79_n N_NET1_c_182_n 0.00168724f
cc_90 N_VDD_c_121_p N_NET1_c_182_n 0.00619213f
cc_91 N_VDD_c_117_p N_NET1_c_182_n 9.07013e-19
cc_92 N_VDD_c_122_p N_NET1_c_185_n 3.48267e-19
cc_93 N_VDD_c_123_p N_NET1_c_185_n 3.48267e-19
cc_94 N_VDD_c_80_n N_NET1_c_185_n 8.08807e-19
cc_95 N_VDD_c_81_n N_NET1_c_185_n 3.96039e-19
cc_96 N_VDD_c_88_n N_NET1_c_185_n 7.82265e-19
cc_97 N_VDD_c_128_p N_NET1_c_186_n 3.89384e-19
cc_98 N_VDD_c_123_p N_NET1_c_186_n 2.74986e-19
cc_99 N_VDD_c_121_p N_NET1_c_186_n 0.00138769f
cc_100 N_VDD_c_88_n N_NET1_c_186_n 5.47694e-19
cc_101 N_VDD_c_117_p N_NET1_c_186_n 8.66889e-19
cc_102 N_VDD_XI13.X0_PGD N_B_XI13.X0_PGS 0.00331493f
cc_103 N_VDD_c_70_n N_B_XI13.X0_PGS 7.63549e-19
cc_104 N_VDD_c_79_n N_B_XI13.X0_PGS 6.44483e-19
cc_105 N_VDD_c_146_p N_B_c_230_n 0.00792574f
cc_106 N_VDD_c_117_p N_B_c_237_n 0.0014275f
cc_107 N_VDD_c_123_p N_Z_c_256_n 3.43419e-19
cc_108 N_VDD_c_88_n N_Z_c_256_n 3.48267e-19
cc_109 N_VDD_c_96_n N_Z_c_256_n 2.74986e-19
cc_110 N_VDD_c_123_p Z 3.48267e-19
cc_111 N_VDD_c_88_n Z 7.09569e-19
cc_112 N_VDD_c_96_n Z 3.66281e-19
cc_113 N_A_c_154_n N_NET1_c_182_n 0.0080879f
cc_114 N_A_c_163_n N_NET1_c_182_n 8.85473e-19
cc_115 N_A_c_156_n N_NET1_c_185_n 9.58642e-19
cc_116 N_A_XI13.X0_CG N_B_XI13.X0_PGS 4.84447e-19
cc_117 N_A_c_154_n N_B_XI13.X0_PGS 3.59952e-19
cc_118 N_A_c_163_n N_B_XI13.X0_PGS 5.64689e-19
cc_119 N_A_c_154_n N_B_c_230_n 2.067e-19
cc_120 N_A_c_163_n N_B_c_230_n 6.90429e-19
cc_121 N_A_c_156_n N_B_c_230_n 0.0015879f
cc_122 N_A_c_156_n N_B_c_237_n 9.27569e-19
cc_123 N_NET1_c_194_n N_B_c_230_n 3.4562e-19
cc_124 N_NET1_c_185_n N_B_c_230_n 2.39796e-19
cc_125 N_NET1_c_186_n N_B_c_230_n 4.12724e-19
cc_126 N_NET1_c_185_n N_B_c_237_n 0.00116203f
cc_127 N_NET1_c_186_n N_B_c_237_n 0.00112058f
cc_128 N_NET1_c_188_n N_B_c_237_n 3.86148e-19
cc_129 N_NET1_c_190_n N_B_c_237_n 0.00196155f
cc_130 N_NET1_c_185_n N_B_c_252_n 0.00147455f
cc_131 N_NET1_c_186_n N_B_c_252_n 0.00146537f
cc_132 N_NET1_c_188_n N_B_c_252_n 5.75904e-19
cc_133 N_NET1_c_190_n N_B_c_252_n 3.48267e-19
cc_134 N_NET1_c_178_n N_Z_c_256_n 7.69306e-19
*
.ends
*
*
.subckt AND2_HPNW12 A B Y VDD VSS
xgate (VSS VDD A B Y) G3_AND2_N3
.ends
*
* File: G2_AOI21_N3.pex.netlist
* Created: Mon Apr 11 18:50:47 2022
* Program "Calibre xRC"
* Version "v2021.2_37.20"
*
.subckt PM_G2_AOI21_N3_VSS 2 4 6 8 19 30 35 38 43 48 57 66 67 69 77 78 79 84 86
+ 88 89 Vss
c48 89 Vss 4.28045e-19
c49 86 Vss 0.00576702f
c50 84 Vss 0.00198426f
c51 79 Vss 0.00132518f
c52 78 Vss 4.66086e-19
c53 77 Vss 0.00250771f
c54 69 Vss 0.00104615f
c55 67 Vss 0.0101744f
c56 66 Vss 0.00354326f
c57 65 Vss 0.00133883f
c58 57 Vss 0.00699915f
c59 48 Vss 2.01624e-19
c60 43 Vss 0.00190058f
c61 38 Vss 0.00140655f
c62 35 Vss 0.00813966f
c63 30 Vss 0.0101549f
c64 25 Vss 0.0829032f
c65 19 Vss 0.0350566f
c66 18 Vss 0.0688416f
c67 8 Vss 0.190897f
c68 4 Vss 0.189497f
r69 85 89 0.551426
r70 85 86 18.3386
r71 84 89 0.551426
r72 83 84 5.50157
r73 79 89 0.0828784
r74 77 86 0.652036
r75 77 78 4.33457
r76 73 78 0.652036
r77 68 88 0.326149
r78 67 83 0.652298
r79 67 68 15.1308
r80 66 69 0.655813
r81 65 88 0.326149
r82 65 66 5.50157
r83 48 79 1.82344
r84 43 57 1.16709
r85 43 73 2.16729
r86 38 69 1.82344
r87 35 48 1.16709
r88 30 38 1.16709
r89 25 57 0.0476429
r90 23 25 2.04225
r91 20 23 0.0685365
r92 18 23 0.5835
r93 18 19 2.8008
r94 15 19 0.652036
r95 8 20 5.1348
r96 6 35 0.123773
r97 4 15 5.1348
r98 2 30 0.123773
.ends

.subckt PM_G2_AOI21_N3_VDD 2 4 6 8 10 29 37 42 45 46 48 50 54 56 57 58 63 65 66
+ 68 74 Vss
c56 74 Vss 0.004704f
c57 66 Vss 4.52364e-19
c58 65 Vss 0.00371658f
c59 63 Vss 0.0104139f
c60 58 Vss 0.0017471f
c61 57 Vss 6.04409e-19
c62 56 Vss 0.00309603f
c63 54 Vss 0.00137895f
c64 51 Vss 0.00173381f
c65 50 Vss 0.0117653f
c66 48 Vss 0.00158874f
c67 46 Vss 0.00143356f
c68 45 Vss 0.00419705f
c69 42 Vss 0.0082636f
c70 37 Vss 0.010107f
c71 33 Vss 0.0307825f
c72 29 Vss 8.92604e-20
c73 26 Vss 0.101624f
c74 22 Vss 0.0359157f
c75 21 Vss 0.0712517f
c76 8 Vss 0.189919f
c77 6 Vss 0.190671f
c78 2 Vss 0.189552f
r79 65 68 0.326018
r80 64 66 0.551426
r81 64 65 5.50157
r82 63 66 0.551426
r83 62 63 18.3386
r84 58 66 0.0828784
r85 58 60 1.82344
r86 56 62 0.652036
r87 56 57 4.37625
r88 54 74 1.16709
r89 52 57 0.652036
r90 52 54 2.16729
r91 50 68 0.326018
r92 50 51 15.6711
r93 46 48 1.82344
r94 45 51 0.652036
r95 44 46 0.655813
r96 44 45 5.50157
r97 42 60 1.16709
r98 37 48 1.16709
r99 29 74 0.0476429
r100 27 33 0.494161
r101 27 29 1.45875
r102 26 30 0.652036
r103 26 29 1.45875
r104 23 33 0.128424
r105 21 33 0.494161
r106 21 22 2.8008
r107 18 22 0.652036
r108 10 42 0.123773
r109 8 30 5.1348
r110 6 23 5.1348
r111 4 37 0.123773
r112 2 18 5.1348
.ends

.subckt PM_G2_AOI21_N3_B 2 4 20 23 26 29 Vss
c18 29 Vss 0.00496711f
c19 23 Vss 4.14813e-19
c20 20 Vss 0.0923936f
c21 16 Vss 0.0610957f
c22 4 Vss 0.211686f
c23 2 Vss 0.427124f
r24 23 29 1.16709
r25 23 26 0.125036
r26 18 20 2.04225
r27 16 29 0.197068
r28 13 16 1.2837
r29 10 20 0.0685365
r30 8 18 0.0685365
r31 7 13 0.0685365
r32 4 10 5.6016
r33 2 8 11.2032
r34 2 7 5.1348
.ends

.subckt PM_G2_AOI21_N3_C 2 4 6 17 24 28 31 36 39 43 56 Vss
c47 56 Vss 0.00111429f
c48 43 Vss 0.0052438f
c49 39 Vss 0.00260114f
c50 36 Vss 3.26162e-19
c51 31 Vss 0.00720813f
c52 28 Vss 0.0949366f
c53 24 Vss 0.084323f
c54 17 Vss 4.93054e-19
c55 6 Vss 0.286419f
c56 4 Vss 0.25621f
c57 2 Vss 0.189817f
r58 52 56 0.652036
r59 39 56 5.16814
r60 36 39 0.0833571
r61 31 43 1.16709
r62 31 52 12.2535
r63 26 28 2.04225
r64 24 43 0.0476429
r65 21 24 1.92555
r66 18 28 0.0685365
r67 17 39 1.16709
r68 13 26 0.0685365
r69 13 17 2.8008
r70 10 21 0.0685365
r71 6 18 8.4024
r72 4 17 5.6016
r73 2 10 5.1348
.ends

.subckt PM_G2_AOI21_N3_Z 2 4 6 8 23 27 30 33 Vss
c33 30 Vss 0.00262006f
c34 27 Vss 0.00473513f
c35 23 Vss 0.00644988f
c36 8 Vss 0.00143493f
c37 6 Vss 0.00143493f
r38 33 35 7.5855
r39 30 33 5.2515
r40 27 35 1.16709
r41 23 30 1.16709
r42 8 27 0.123773
r43 6 23 0.123773
r44 4 27 0.123773
r45 2 23 0.123773
.ends

.subckt PM_G2_AOI21_N3_A 2 4 10 11 13 14 15 20 24 29 32 Vss
c32 32 Vss 9.42706e-19
c33 29 Vss 5.87748e-19
c34 24 Vss 1.66175e-19
c35 20 Vss 0.191363f
c36 18 Vss 0.0247918f
c37 15 Vss 0.0322409f
c38 14 Vss 0.0740343f
c39 13 Vss 0.0312529f
c40 11 Vss 0.0324985f
c41 10 Vss 0.122088f
c42 2 Vss 0.292885f
r43 26 32 1.16709
r44 26 29 0.0729375
r45 24 32 0.262036
r46 20 32 0.238214
r47 18 24 0.326018
r48 18 20 0.64185
r49 15 24 2.50905
r50 14 24 0.326018
r51 14 24 0.1167
r52 13 15 0.652036
r53 12 13 1.22535
r54 10 12 0.652036
r55 10 11 3.09255
r56 7 11 0.652036
r57 4 20 5.0181
r58 2 7 8.7525
.ends

.subckt G2_AOI21_N3  VSS VDD B C Z A
*
* A	A
* Z	Z
* C	C
* B	B
* VDD	VDD
* VSS	VSS
XI18.X0 N_Z_XI18.X0_D N_VDD_XI18.X0_PGD N_A_XI18.X0_CG N_B_XI18.X0_PGS
+ N_VSS_XI18.X0_S TIGFET_HPNW12
XI16.X0 N_Z_XI16.X0_D N_VSS_XI16.X0_PGD N_B_XI16.X0_CG N_C_XI16.X0_PGS
+ N_VDD_XI16.X0_S TIGFET_HPNW12
XI19.X0 N_Z_XI19.X0_D N_VDD_XI19.X0_PGD N_C_XI19.X0_CG N_VDD_XI19.X0_PGS
+ N_VSS_XI19.X0_S TIGFET_HPNW12
XI17.X0 N_Z_XI17.X0_D N_VSS_XI17.X0_PGD N_A_XI17.X0_CG N_C_XI17.X0_PGS
+ N_VDD_XI17.X0_S TIGFET_HPNW12
*
x_PM_G2_AOI21_N3_VSS N_VSS_XI18.X0_S N_VSS_XI16.X0_PGD N_VSS_XI19.X0_S
+ N_VSS_XI17.X0_PGD N_VSS_c_3_p N_VSS_c_34_p N_VSS_c_8_p N_VSS_c_2_p N_VSS_c_4_p
+ N_VSS_c_9_p N_VSS_c_5_p N_VSS_c_21_p N_VSS_c_10_p N_VSS_c_1_p N_VSS_c_6_p
+ N_VSS_c_7_p N_VSS_c_12_p N_VSS_c_14_p N_VSS_c_15_p VSS N_VSS_c_16_p Vss
+ PM_G2_AOI21_N3_VSS
x_PM_G2_AOI21_N3_VDD N_VDD_XI18.X0_PGD N_VDD_XI16.X0_S N_VDD_XI19.X0_PGD
+ N_VDD_XI19.X0_PGS N_VDD_XI17.X0_S N_VDD_c_76_p N_VDD_c_90_p N_VDD_c_91_p
+ N_VDD_c_75_p N_VDD_c_49_n N_VDD_c_50_n N_VDD_c_51_n N_VDD_c_70_p N_VDD_c_56_n
+ N_VDD_c_59_n N_VDD_c_60_n N_VDD_c_61_n N_VDD_c_65_n N_VDD_c_68_n VDD
+ N_VDD_c_71_p Vss PM_G2_AOI21_N3_VDD
x_PM_G2_AOI21_N3_B N_B_XI18.X0_PGS N_B_XI16.X0_CG N_B_c_113_p N_B_c_105_n B
+ N_B_c_110_n Vss PM_G2_AOI21_N3_B
x_PM_G2_AOI21_N3_C N_C_XI16.X0_PGS N_C_XI19.X0_CG N_C_XI17.X0_PGS N_C_c_135_n
+ N_C_c_137_n N_C_c_138_n N_C_c_124_n C N_C_c_127_n N_C_c_128_n N_C_c_132_n Vss
+ PM_G2_AOI21_N3_C
x_PM_G2_AOI21_N3_Z N_Z_XI18.X0_D N_Z_XI16.X0_D N_Z_XI19.X0_D N_Z_XI17.X0_D
+ N_Z_c_170_n N_Z_c_180_n N_Z_c_174_n Z Vss PM_G2_AOI21_N3_Z
x_PM_G2_AOI21_N3_A N_A_XI18.X0_CG N_A_XI17.X0_CG N_A_c_203_n N_A_c_213_n
+ N_A_c_214_n N_A_c_204_n N_A_c_215_n N_A_c_221_n N_A_c_205_n A N_A_c_207_n Vss
+ PM_G2_AOI21_N3_A
cc_1 N_VSS_c_1_p N_VDD_c_49_n 3.30468e-19
cc_2 N_VSS_c_2_p N_VDD_c_50_n 4.89405e-19
cc_3 N_VSS_c_3_p N_VDD_c_51_n 0.00126279f
cc_4 N_VSS_c_4_p N_VDD_c_51_n 0.00161703f
cc_5 N_VSS_c_5_p N_VDD_c_51_n 2.26455e-19
cc_6 N_VSS_c_6_p N_VDD_c_51_n 0.00345242f
cc_7 N_VSS_c_7_p N_VDD_c_51_n 0.00169823f
cc_8 N_VSS_c_8_p N_VDD_c_56_n 2.74986e-19
cc_9 N_VSS_c_9_p N_VDD_c_56_n 3.26764e-19
cc_10 N_VSS_c_10_p N_VDD_c_56_n 0.00463433f
cc_11 N_VSS_c_10_p N_VDD_c_59_n 0.00166316f
cc_12 N_VSS_c_12_p N_VDD_c_60_n 4.01154e-19
cc_13 N_VSS_c_9_p N_VDD_c_61_n 0.00187494f
cc_14 N_VSS_c_14_p N_VDD_c_61_n 0.00422386f
cc_15 N_VSS_c_15_p N_VDD_c_61_n 0.00869026f
cc_16 N_VSS_c_16_p N_VDD_c_61_n 9.16632e-19
cc_17 N_VSS_c_4_p N_VDD_c_65_n 4.83895e-19
cc_18 N_VSS_c_6_p N_VDD_c_65_n 0.00105311f
cc_19 N_VSS_c_15_p N_VDD_c_65_n 0.00385589f
cc_20 N_VSS_c_15_p N_VDD_c_68_n 0.00115015f
cc_21 N_VSS_c_21_p N_B_c_105_n 3.69138e-19
cc_22 N_VSS_c_10_p N_B_c_105_n 3.72732e-19
cc_23 N_VSS_XI16.X0_PGD N_C_XI16.X0_PGS 0.00150757f
cc_24 N_VSS_c_4_p N_C_c_124_n 8.90801e-19
cc_25 N_VSS_c_5_p N_C_c_124_n 3.44698e-19
cc_26 N_VSS_c_15_p N_C_c_124_n 0.00209922f
cc_27 N_VSS_c_15_p N_C_c_127_n 5.11302e-19
cc_28 N_VSS_XI16.X0_PGD N_C_c_128_n 3.23173e-19
cc_29 N_VSS_c_3_p N_C_c_128_n 0.00480946f
cc_30 N_VSS_c_4_p N_C_c_128_n 3.44698e-19
cc_31 N_VSS_c_5_p N_C_c_128_n 6.61756e-19
cc_32 N_VSS_c_10_p N_C_c_132_n 0.00205555f
cc_33 N_VSS_c_15_p N_C_c_132_n 3.90377e-19
cc_34 N_VSS_c_34_p N_Z_c_170_n 3.43419e-19
cc_35 N_VSS_c_8_p N_Z_c_170_n 3.43419e-19
cc_36 N_VSS_c_2_p N_Z_c_170_n 3.48267e-19
cc_37 N_VSS_c_9_p N_Z_c_170_n 3.48267e-19
cc_38 N_VSS_c_34_p N_Z_c_174_n 3.48267e-19
cc_39 N_VSS_c_8_p N_Z_c_174_n 3.48267e-19
cc_40 N_VSS_c_2_p N_Z_c_174_n 5.71987e-19
cc_41 N_VSS_c_9_p N_Z_c_174_n 5.71987e-19
cc_42 N_VSS_c_10_p N_Z_c_174_n 3.02286e-19
cc_43 N_VSS_c_15_p N_Z_c_174_n 9.87738e-19
cc_44 N_VSS_XI16.X0_PGD N_A_c_203_n 7.5154e-19
cc_45 N_VSS_XI17.X0_PGD N_A_c_204_n 0.00163887f
cc_46 N_VSS_c_5_p N_A_c_205_n 5.05931e-19
cc_47 N_VSS_c_5_p A 2.15082e-19
cc_48 N_VSS_c_4_p N_A_c_207_n 2.15082e-19
cc_49 N_VDD_XI18.X0_PGD N_B_XI18.X0_PGS 0.00174385f
cc_50 N_VDD_c_70_p N_B_c_105_n 6.29947e-19
cc_51 N_VDD_c_71_p N_B_c_105_n 3.48267e-19
cc_52 N_VDD_XI18.X0_PGD N_B_c_110_n 3.23173e-19
cc_53 N_VDD_c_70_p N_B_c_110_n 4.44903e-19
cc_54 N_VDD_c_71_p N_B_c_110_n 6.39485e-19
cc_55 N_VDD_c_75_p N_C_XI16.X0_PGS 3.81609e-19
cc_56 N_VDD_c_76_p N_C_c_135_n 5.33384e-19
cc_57 N_VDD_c_61_n N_C_c_135_n 5.92666e-19
cc_58 N_VDD_c_51_n N_C_c_137_n 3.8746e-19
cc_59 N_VDD_XI19.X0_PGS N_C_c_138_n 8.42974e-19
cc_60 N_VDD_c_61_n N_C_c_138_n 6.25289e-19
cc_61 N_VDD_c_75_p N_C_c_124_n 0.00129723f
cc_62 N_VDD_c_50_n N_C_c_124_n 4.34459e-19
cc_63 N_VDD_c_51_n N_C_c_124_n 0.00204347f
cc_64 N_VDD_c_70_p C 2.77106e-19
cc_65 N_VDD_c_61_n C 4.49702e-19
cc_66 N_VDD_c_71_p C 2.15082e-19
cc_67 N_VDD_c_51_n N_C_c_127_n 5.0979e-19
cc_68 N_VDD_c_75_p N_C_c_128_n 3.66936e-19
cc_69 N_VDD_c_51_n N_C_c_128_n 2.64932e-19
cc_70 N_VDD_c_90_p N_Z_c_180_n 3.43419e-19
cc_71 N_VDD_c_91_p N_Z_c_180_n 3.43419e-19
cc_72 N_VDD_c_50_n N_Z_c_180_n 3.72199e-19
cc_73 N_VDD_c_51_n N_Z_c_180_n 2.74986e-19
cc_74 N_VDD_c_60_n N_Z_c_180_n 3.72199e-19
cc_75 N_VDD_c_90_p N_Z_c_174_n 3.48267e-19
cc_76 N_VDD_c_91_p N_Z_c_174_n 3.48267e-19
cc_77 N_VDD_c_50_n N_Z_c_174_n 5.09542e-19
cc_78 N_VDD_c_51_n N_Z_c_174_n 5.72568e-19
cc_79 N_VDD_c_60_n N_Z_c_174_n 7.72285e-19
cc_80 N_VDD_c_61_n N_Z_c_174_n 0.00179861f
cc_81 N_VDD_XI18.X0_PGD N_A_c_203_n 6.25166e-19
cc_82 N_VDD_XI19.X0_PGD N_A_c_204_n 3.70201e-19
cc_83 N_VDD_c_61_n A 4.8807e-19
cc_84 N_VDD_c_61_n N_A_c_207_n 3.66936e-19
cc_85 N_B_c_113_p N_C_XI16.X0_PGS 0.0020206f
cc_86 N_B_XI18.X0_PGS N_C_XI19.X0_CG 2.46172e-19
cc_87 N_B_c_113_p N_C_XI17.X0_PGS 4.66827e-19
cc_88 N_B_c_105_n N_C_c_132_n 2.19701e-19
cc_89 N_B_XI18.X0_PGS N_Z_c_174_n 2.61881e-19
cc_90 N_B_XI18.X0_PGS N_A_XI18.X0_CG 0.00881601f
cc_91 N_B_c_113_p N_A_c_213_n 0.00191565f
cc_92 N_B_XI18.X0_PGS N_A_c_214_n 6.07734e-19
cc_93 N_B_c_113_p N_A_c_215_n 0.00136534f
cc_94 N_B_c_113_p N_A_c_207_n 2.87722e-19
cc_95 N_C_c_135_n N_Z_c_174_n 9.83688e-19
cc_96 N_C_c_124_n N_Z_c_174_n 0.00308891f
cc_97 C N_Z_c_174_n 0.00140888f
cc_98 N_C_c_127_n N_Z_c_174_n 0.00195497f
cc_99 N_C_c_132_n N_Z_c_174_n 2.70867e-19
cc_100 N_C_XI19.X0_CG N_A_XI18.X0_CG 5.48933e-19
cc_101 N_C_c_135_n N_A_XI18.X0_CG 5.60239e-19
cc_102 N_C_XI17.X0_PGS N_A_c_203_n 8.10159e-19
cc_103 N_C_c_138_n N_A_c_203_n 0.00121323f
cc_104 N_C_XI17.X0_PGS N_A_c_221_n 4.42555e-19
cc_105 N_C_c_135_n N_A_c_205_n 9.47282e-19
cc_106 N_C_c_135_n A 4.56568e-19
cc_107 C A 6.3743e-19
cc_108 N_C_XI17.X0_PGS N_A_c_207_n 0.00570455f
cc_109 N_C_c_135_n N_A_c_207_n 6.1245e-19
cc_110 N_C_c_138_n N_A_c_207_n 0.00239404f
cc_111 C N_A_c_207_n 4.56568e-19
cc_112 N_Z_c_174_n N_A_XI18.X0_CG 5.52516e-19
cc_113 N_Z_c_170_n N_A_c_203_n 3.56294e-19
cc_114 N_Z_c_174_n N_A_c_203_n 3.092e-19
cc_115 N_Z_c_180_n N_A_c_215_n 5.66216e-19
cc_116 N_Z_c_174_n A 0.00149422f
cc_117 N_Z_c_174_n N_A_c_207_n 9.53426e-19
*
.ends
*
*
.subckt AOI21_HPNW12 A0 A1 B0 Y VDD VSS
xgate (VSS VDD A1 B0 Y A0) G2_AOI21_N3
.ends
*
* File: G2_BUF1_N3.pex.netlist
* Created: Wed Mar  2 15:50:41 2022
* Program "Calibre xRC"
* Version "v2021.2_37.20"
*
.subckt PM_G2_BUF1_N3_VDD 2 4 7 11 28 30 32 44 48 52 54 56 57 61 65 67 71 75 78
+ 90 95 Vss
c55 95 Vss 0.00494983f
c56 90 Vss 0.00475556f
c57 80 Vss 9.22237e-19
c58 79 Vss 9.22237e-19
c59 75 Vss 0.00138508f
c60 71 Vss 9.81533e-19
c61 68 Vss 0.00177515f
c62 67 Vss 0.00751016f
c63 65 Vss 0.0012592f
c64 61 Vss 0.0012592f
c65 57 Vss 0.00744668f
c66 56 Vss 0.00466777f
c67 54 Vss 0.00779694f
c68 52 Vss 0.00466777f
c69 51 Vss 0.00177515f
c70 48 Vss 0.00810125f
c71 44 Vss 0.0100206f
c72 32 Vss 0.0356247f
c73 31 Vss 0.102427f
c74 28 Vss 0.0356247f
c75 27 Vss 0.102427f
c76 11 Vss 0.378484f
c77 7 Vss 0.378484f
r78 75 95 1.16709
r79 73 75 2.16729
r80 71 90 1.16709
r81 69 71 2.16729
r82 67 73 0.652036
r83 67 68 10.1279
r84 63 80 0.0828784
r85 63 65 1.82344
r86 59 79 0.0828784
r87 59 61 1.82344
r88 58 78 0.326018
r89 57 69 0.652036
r90 57 58 10.1279
r91 56 68 0.652036
r92 55 80 0.551426
r93 55 56 5.50157
r94 54 80 0.551426
r95 53 79 0.551426
r96 53 54 8.58579
r97 52 79 0.551426
r98 51 78 0.326018
r99 51 52 5.50157
r100 48 65 1.16709
r101 44 61 1.16709
r102 34 95 0.0476429
r103 32 34 1.45875
r104 31 38 0.652036
r105 31 34 1.45875
r106 30 90 0.0476429
r107 28 30 1.45875
r108 27 35 0.652036
r109 27 30 1.45875
r110 24 32 0.652036
r111 21 28 0.652036
r112 11 38 5.1348
r113 11 24 5.1348
r114 7 35 5.1348
r115 7 21 5.1348
r116 4 48 0.123773
r117 2 44 0.123773
.ends

.subckt PM_G2_BUF1_N3_VSS 3 7 10 12 27 28 31 32 45 49 52 57 62 67 72 77 97 98 99
+ 100 101 105 110 112 114 116 Vss
c52 118 Vss 6.78504e-19
c53 117 Vss 6.78504e-19
c54 114 Vss 0.00360796f
c55 112 Vss 0.00582053f
c56 110 Vss 0.00360796f
c57 109 Vss 0.0013648f
c58 105 Vss 0.0010737f
c59 101 Vss 9.14356e-19
c60 100 Vss 5.83649e-19
c61 99 Vss 0.00682958f
c62 98 Vss 5.83649e-19
c63 97 Vss 0.00550031f
c64 77 Vss 0.00392669f
c65 72 Vss 0.00392498f
c66 67 Vss 1.62518e-19
c67 62 Vss 7.10513e-22
c68 57 Vss 8.49747e-19
c69 52 Vss 0.00100529f
c70 49 Vss 0.0100686f
c71 45 Vss 0.00814922f
c72 32 Vss 0.0350852f
c73 31 Vss 0.0994129f
c74 28 Vss 0.0350852f
c75 27 Vss 0.0994129f
c76 7 Vss 0.377694f
c77 3 Vss 0.377694f
r78 113 118 0.551426
r79 113 114 5.50157
r80 112 118 0.551426
r81 111 117 0.551426
r82 111 112 8.58579
r83 110 117 0.551426
r84 109 116 0.326018
r85 109 110 5.50157
r86 105 118 0.0828784
r87 101 117 0.0828784
r88 99 114 0.652036
r89 99 100 10.1279
r90 97 116 0.326018
r91 97 98 10.1279
r92 93 100 0.652036
r93 89 98 0.652036
r94 67 105 1.82344
r95 62 101 1.82344
r96 57 77 1.16709
r97 57 93 2.16729
r98 52 72 1.16709
r99 52 89 2.16729
r100 49 67 1.16709
r101 45 62 1.16709
r102 34 77 0.0476429
r103 32 34 1.45875
r104 31 38 0.652036
r105 31 34 1.45875
r106 30 72 0.0476429
r107 28 30 1.45875
r108 27 35 0.652036
r109 27 30 1.45875
r110 24 32 0.652036
r111 21 28 0.652036
r112 12 49 0.123773
r113 10 45 0.123773
r114 7 38 5.1348
r115 7 24 5.1348
r116 3 35 5.1348
r117 3 21 5.1348
.ends

.subckt PM_G2_BUF1_N3_A 2 4 12 24 27 Vss
c13 27 Vss 0.00315166f
c14 24 Vss 1.56823e-19
c15 12 Vss 0.20431f
c16 9 Vss 0.180512f
c17 7 Vss 0.0247918f
c18 4 Vss 0.193588f
r19 24 27 1.16709
r20 15 27 0.0476429
r21 13 15 0.326018
r22 13 15 0.1167
r23 12 16 0.652036
r24 12 15 6.7686
r25 9 27 0.357321
r26 7 15 0.326018
r27 7 9 0.40845
r28 4 16 5.1348
r29 2 9 4.72635
.ends

.subckt PM_G2_BUF1_N3_Z 2 4 13 16 19 Vss
c13 16 Vss 3.73795e-19
c14 13 Vss 0.00513911f
c15 4 Vss 0.00176592f
r16 16 19 0.0416786
r17 13 16 1.16709
r18 4 13 0.123773
r19 2 13 0.123773
.ends

.subckt PM_G2_BUF1_N3_NET17 2 4 6 8 18 33 36 41 50 58 Vss
c31 58 Vss 5.10694e-19
c32 50 Vss 0.0034988f
c33 41 Vss 0.0021514f
c34 36 Vss 0.0018043f
c35 33 Vss 0.00513911f
c36 22 Vss 0.0247918f
c37 19 Vss 0.0299669f
c38 18 Vss 0.173331f
c39 8 Vss 0.00176592f
c40 6 Vss 0.180667f
c41 2 Vss 0.192541f
r42 54 58 0.653045
r43 41 50 1.16709
r44 41 58 2.1395
r45 36 54 5.29318
r46 33 36 1.16709
r47 28 50 0.0476429
r48 26 50 0.357321
r49 22 28 0.326018
r50 22 26 0.40845
r51 19 28 6.7686
r52 18 28 0.326018
r53 18 28 0.1167
r54 15 19 0.652036
r55 8 33 0.123773
r56 6 26 4.72635
r57 4 33 0.123773
r58 2 15 5.1348
.ends

.subckt G2_BUF1_N3  VDD VSS A Z
*
* Z	Z
* A	A
* VSS	VSS
* VDD	VDD
XI14.X0 N_Z_XI14.X0_D N_VSS_XI14.X0_PGD N_NET17_XI14.X0_CG N_VSS_XI14.X0_PGD
+ N_VDD_XI14.X0_S TIGFET_HPNW12
XI11.X0 N_NET17_XI11.X0_D N_VSS_XI11.X0_PGD N_A_XI11.X0_CG N_VSS_XI11.X0_PGD
+ N_VDD_XI11.X0_S TIGFET_HPNW12
XI13.X0 N_Z_XI13.X0_D N_VDD_XI13.X0_PGD N_NET17_XI13.X0_CG N_VDD_XI13.X0_PGD
+ N_VSS_XI13.X0_S TIGFET_HPNW12
XI12.X0 N_NET17_XI12.X0_D N_VDD_XI12.X0_PGD N_A_XI12.X0_CG N_VDD_XI12.X0_PGD
+ N_VSS_XI12.X0_S TIGFET_HPNW12
*
x_PM_G2_BUF1_N3_VDD N_VDD_XI14.X0_S N_VDD_XI11.X0_S N_VDD_XI13.X0_PGD
+ N_VDD_XI12.X0_PGD N_VDD_c_4_p N_VDD_c_50_p N_VDD_c_8_p N_VDD_c_36_p
+ N_VDD_c_45_p N_VDD_c_6_p N_VDD_c_34_p N_VDD_c_3_p N_VDD_c_5_p N_VDD_c_38_p
+ N_VDD_c_46_p N_VDD_c_9_p N_VDD_c_13_p N_VDD_c_17_p VDD N_VDD_c_14_p
+ N_VDD_c_18_p Vss PM_G2_BUF1_N3_VDD
x_PM_G2_BUF1_N3_VSS N_VSS_XI14.X0_PGD N_VSS_XI11.X0_PGD N_VSS_XI13.X0_S
+ N_VSS_XI12.X0_S N_VSS_c_59_n N_VSS_c_61_n N_VSS_c_63_n N_VSS_c_65_n
+ N_VSS_c_93_p N_VSS_c_99_p N_VSS_c_66_n N_VSS_c_70_n N_VSS_c_94_p N_VSS_c_100_p
+ N_VSS_c_74_n N_VSS_c_78_n N_VSS_c_81_n N_VSS_c_82_n N_VSS_c_83_n N_VSS_c_84_n
+ N_VSS_c_96_p N_VSS_c_103_p N_VSS_c_85_n N_VSS_c_104_p N_VSS_c_86_n VSS Vss
+ PM_G2_BUF1_N3_VSS
x_PM_G2_BUF1_N3_A N_A_XI11.X0_CG N_A_XI12.X0_CG N_A_c_108_n A N_A_c_111_n Vss
+ PM_G2_BUF1_N3_A